<?xml version='1.0' encoding='utf-8'?>
<routes><vType id="car" accel="1.0" decel="4.5" sigma="0.5" length="5" maxSpeed="13.9" guiShape="passenger" /><trip id="trip_0" type="car" depart="0" frm="137415945#0" to="133131666#1" /><trip id="trip_1" type="car" depart="1" frm="137415945#0" to="1369578052#0" /><trip id="trip_2" type="car" depart="2" frm="137415945#0" to="380351865#0" /><trip id="trip_3" type="car" depart="3" frm="137415945#0" to="-430406005#1" /><trip id="trip_4" type="car" depart="4" frm="137415945#0" to="409155823" /><trip id="trip_5" type="car" depart="5" frm="137415945#0" to="791826085" /><trip id="trip_6" type="car" depart="6" frm="137415945#0" to="1341093416#0" /><trip id="trip_7" type="car" depart="7" frm="137415945#0" to="-138002002#2" /><trip id="trip_8" type="car" depart="8" frm="137415945#0" to="133342692#0" /><trip id="trip_9" type="car" depart="9" frm="137415945#0" to="138002016#0" /><trip id="trip_10" type="car" depart="10" frm="137415945#0" to="133342692#0" /><trip id="trip_11" type="car" depart="11" frm="137415945#0" to="138002016#0" /><trip id="trip_12" type="car" depart="12" frm="137415945#0" to="133126031#0" /><trip id="trip_13" type="car" depart="13" frm="137415945#0" to="1318793173#0" /><trip id="trip_14" type="car" depart="14" frm="137415945#0" to="1318893695#0" /><trip id="trip_15" type="car" depart="15" frm="137415945#0" to="1091883842" /><trip id="trip_16" type="car" depart="16" frm="137415945#0" to="485211947#0" /><trip id="trip_17" type="car" depart="17" frm="137415945#0" to="134193294#0" /><trip id="trip_18" type="car" depart="18" frm="137415945#0" to="1328664748#0" /><trip id="trip_19" type="car" depart="19" frm="137415945#0" to="1254519225#0.109" /><trip id="trip_20" type="car" depart="20" frm="137415945#0" to="1254519229#0" /><trip id="trip_21" type="car" depart="21" frm="137415945#0" to="799091563#0" /><trip id="trip_22" type="car" depart="22" frm="137415945#0" to="-138002006#3" /><trip id="trip_23" type="car" depart="23" frm="137415945#0" to="380351865#0" /><trip id="trip_24" type="car" depart="24" frm="137415945#0" to="423956929" /><trip id="trip_25" type="car" depart="25" frm="137415945#0" to="133000063" /><trip id="trip_26" type="car" depart="26" frm="137415945#0" to="136617981" /><trip id="trip_27" type="car" depart="27" frm="137415945#0" to="423956929" /><trip id="trip_28" type="car" depart="28" frm="137415945#0" to="133000063" /><trip id="trip_29" type="car" depart="29" frm="137415945#0" to="136617981" /><trip id="trip_30" type="car" depart="30" frm="137415945#0" to="291974733#0" /><trip id="trip_31" type="car" depart="31" frm="137415945#0" to="189835257" /><trip id="trip_32" type="car" depart="32" frm="137415945#0" to="133131666#1" /><trip id="trip_33" type="car" depart="33" frm="137415945#0" to="133000063" /><trip id="trip_34" type="car" depart="34" frm="137415945#0" to="136617981" /><trip id="trip_35" type="car" depart="35" frm="137415945#0" to="-430406005#1" /><trip id="trip_36" type="car" depart="36" frm="137415945#0" to="1369578054" /><trip id="trip_37" type="car" depart="37" frm="137415945#0" to="135474719#0" /><trip id="trip_38" type="car" depart="38" frm="137415945#0" to="1253188486#8" /><trip id="trip_39" type="car" depart="39" frm="137415945#0" to="177211987#1" /><trip id="trip_40" type="car" depart="40" frm="137415945#0" to="135474719#0" /><trip id="trip_41" type="car" depart="41" frm="137415945#0" to="1328664744#0" /><trip id="trip_42" type="car" depart="42" frm="137415945#0" to="177211987#1" /><trip id="trip_43" type="car" depart="43" frm="137415945#0" to="430416184" /><trip id="trip_44" type="car" depart="44" frm="137415945#0" to="1342963997" /><trip id="trip_45" type="car" depart="45" frm="137415945#0" to="688883939#0" /><trip id="trip_46" type="car" depart="46" frm="137415945#0" to="134194079#0" /><trip id="trip_47" type="car" depart="47" frm="137415945#0" to="138000492#0" /><trip id="trip_48" type="car" depart="48" frm="137415945#0" to="1341093415#0" /><trip id="trip_49" type="car" depart="49" frm="137415945#0" to="-422986370#2" /><trip id="trip_50" type="car" depart="50" frm="137415945#0" to="133126031#0" /><trip id="trip_51" type="car" depart="51" frm="137415945#0" to="1318793173#0" /><trip id="trip_52" type="car" depart="52" frm="137415945#0" to="186407684#0" /><trip id="trip_53" type="car" depart="53" frm="137415945#0" to="186407685" /><trip id="trip_54" type="car" depart="54" frm="137415945#0" to="186409193" /><trip id="trip_55" type="car" depart="55" frm="137415945#0" to="380585336" /><trip id="trip_56" type="car" depart="56" frm="137415945#0" to="683079387#1" /><trip id="trip_57" type="car" depart="57" frm="137415945#0" to="186407684#0" /><trip id="trip_58" type="car" depart="58" frm="137415945#0" to="186407685" /><trip id="trip_59" type="car" depart="59" frm="137415945#0" to="186409193" /><trip id="trip_60" type="car" depart="60" frm="137415945#0" to="380585336" /><trip id="trip_61" type="car" depart="61" frm="137415945#0" to="683079387#1" /><trip id="trip_62" type="car" depart="62" frm="137415945#0" to="1342054204" /><trip id="trip_63" type="car" depart="63" frm="137415945#0" to="1235147073.116" /><trip id="trip_64" type="car" depart="64" frm="137415945#0" to="379698350#0" /><trip id="trip_65" type="car" depart="65" frm="137415945#0" to="-138002002#2" /><trip id="trip_66" type="car" depart="66" frm="137415945#0" to="133342692#0" /><trip id="trip_67" type="car" depart="67" frm="137415945#0" to="138002016#0" /><trip id="trip_68" type="car" depart="68" frm="137415945#0" to="186409193" /><trip id="trip_69" type="car" depart="69" frm="137415945#0" to="380585336" /><trip id="trip_70" type="car" depart="70" frm="137415945#0" to="683079387#1" /><trip id="trip_71" type="car" depart="71" frm="137415945#0" to="138002006#0" /><trip id="trip_72" type="car" depart="72" frm="137415945#0" to="1254519229#0" /><trip id="trip_73" type="car" depart="73" frm="137415945#0" to="799091563#0" /><trip id="trip_74" type="car" depart="74" frm="137415945#0" to="688883939#0" /><trip id="trip_75" type="car" depart="75" frm="137415945#0" to="138000492#0" /><trip id="trip_76" type="car" depart="76" frm="137415945#0" to="134193294#0" /><trip id="trip_77" type="car" depart="77" frm="137415945#0" to="133126030#0" /><trip id="trip_78" type="car" depart="78" frm="137415945#0" to="688883939#0" /><trip id="trip_79" type="car" depart="79" frm="137415945#0" to="138000492#0" /><trip id="trip_80" type="car" depart="80" frm="137415945#0" to="186407684#0" /><trip id="trip_81" type="car" depart="81" frm="137415945#0" to="1091883842" /><trip id="trip_82" type="car" depart="82" frm="137415945#0" to="186407685" /><trip id="trip_83" type="car" depart="83" frm="137415945#0" to="380585336" /><trip id="trip_84" type="car" depart="84" frm="137415945#0" to="683079387#1" /><trip id="trip_85" type="car" depart="85" frm="137415945#0" to="186410975#0" /><trip id="trip_86" type="car" depart="86" frm="137415945#0" to="1254157399#1" /><trip id="trip_87" type="car" depart="87" frm="137415945#0" to="809719540#0" /><trip id="trip_88" type="car" depart="88" frm="137415945#0" to="1328664744#0" /><trip id="trip_89" type="car" depart="89" frm="137415945#0" to="1253188486#8" /><trip id="trip_90" type="car" depart="90" frm="137415945#0" to="409155823" /><trip id="trip_91" type="car" depart="91" frm="137415945#0" to="791826085" /><trip id="trip_92" type="car" depart="92" frm="137415945#0" to="1341093416#0" /><trip id="trip_93" type="car" depart="93" frm="137415945#0" to="-430406005#1" /><trip id="trip_94" type="car" depart="94" frm="137415945#0" to="291974733#0" /><trip id="trip_95" type="car" depart="95" frm="137415945#0" to="189835257" /><trip id="trip_96" type="car" depart="96" frm="137415945#0" to="1254771874#0" /><trip id="trip_97" type="car" depart="97" frm="137415945#0" to="791826085" /><trip id="trip_98" type="car" depart="98" frm="137415945#0" to="1341093416#0" /><trip id="trip_99" type="car" depart="99" frm="137415945#0" to="1369578052#0" /><trip id="trip_100" type="car" depart="100" frm="137415945#0" to="-138002006#3" /><trip id="trip_101" type="car" depart="101" frm="137415945#0" to="380351865#0" /><trip id="trip_102" type="car" depart="102" frm="137415945#0" to="1254519229#0" /><trip id="trip_103" type="car" depart="103" frm="137415945#0" to="430416184" /><trip id="trip_104" type="car" depart="104" frm="137415945#0" to="1310781056" /><trip id="trip_105" type="car" depart="105" frm="137415945#0" to="-809772643#1" /><trip id="trip_106" type="car" depart="106" frm="137415945#0" to="791826085" /><trip id="trip_107" type="car" depart="107" frm="137415945#0" to="1341093416#0" /><trip id="trip_108" type="car" depart="108" frm="137415945#0" to="-138002006#3" /><trip id="trip_109" type="car" depart="109" frm="137415945#0" to="380351865#0" /><trip id="trip_110" type="car" depart="110" frm="137415945#0" to="1254519229#0" /><trip id="trip_111" type="car" depart="111" frm="137415945#0" to="430416184" /><trip id="trip_112" type="car" depart="112" frm="137415945#0" to="1310781056" /><trip id="trip_113" type="car" depart="113" frm="137415945#0" to="-809772643#1" /><trip id="trip_114" type="car" depart="114" frm="137415945#0" to="-430406005#1" /><trip id="trip_115" type="car" depart="115" frm="137415945#0" to="133126030#0" /><trip id="trip_116" type="car" depart="116" frm="137415945#0" to="1369578054" /><trip id="trip_117" type="car" depart="117" frm="137415945#0" to="-138002006#3" /><trip id="trip_118" type="car" depart="118" frm="137415945#0" to="423956929" /><trip id="trip_119" type="car" depart="119" frm="137415945#0" to="133000063" /><trip id="trip_120" type="car" depart="120" frm="137415945#0" to="136617981" /><trip id="trip_121" type="car" depart="121" frm="137415945#0" to="1254519229#0" /><trip id="trip_122" type="car" depart="122" frm="137415945#0" to="430416184" /><trip id="trip_123" type="car" depart="123" frm="137415945#0" to="1310781056" /><trip id="trip_124" type="car" depart="124" frm="137415945#0" to="-809772643#1" /><trip id="trip_125" type="car" depart="125" frm="137415945#0" to="1369578052#0" /><trip id="trip_126" type="car" depart="126" frm="137415945#0" to="380351865#0" /><trip id="trip_127" type="car" depart="127" frm="137415945#0" to="430416184" /><trip id="trip_128" type="car" depart="128" frm="137415945#0" to="1342963997" /><trip id="trip_129" type="car" depart="129" frm="137415945#0" to="688883939#0" /><trip id="trip_130" type="car" depart="130" frm="137415945#0" to="134194079#0" /><trip id="trip_131" type="car" depart="131" frm="137415945#0" to="138000492#0" /><trip id="trip_132" type="car" depart="132" frm="137415945#0" to="186410975#0" /><trip id="trip_133" type="car" depart="133" frm="137415945#0" to="1254157399#1" /><trip id="trip_134" type="car" depart="134" frm="137415945#0" to="809719540#0" /><trip id="trip_135" type="car" depart="135" frm="137415945#0" to="134193294#0" /><trip id="trip_136" type="car" depart="136" frm="137415945#0" to="1328664748#0" /><trip id="trip_137" type="car" depart="137" frm="137415945#0" to="186410975#0" /><trip id="trip_138" type="car" depart="138" frm="137415945#0" to="1254157399#1" /><trip id="trip_139" type="car" depart="139" frm="137415945#0" to="809719540#0" /><trip id="trip_140" type="car" depart="140" frm="137415945#0" to="791826085" /><trip id="trip_141" type="car" depart="141" frm="137415945#0" to="133000063" /><trip id="trip_142" type="car" depart="142" frm="137415945#0" to="136617981" /><trip id="trip_143" type="car" depart="143" frm="137415945#0" to="1369578052#0" /><trip id="trip_144" type="car" depart="144" frm="137415945#0" to="-138002006#3" /><trip id="trip_145" type="car" depart="145" frm="137415945#0" to="380351865#0" /><trip id="trip_146" type="car" depart="146" frm="137415945#0" to="1310781056" /><trip id="trip_147" type="car" depart="147" frm="137415945#0" to="-809772643#1" /><trip id="trip_148" type="car" depart="148" frm="137415945#0" to="430416184" /><trip id="trip_149" type="car" depart="149" frm="137415945#0" to="380585336" /><trip id="trip_150" type="car" depart="150" frm="137415945#0" to="683079387#1" /><trip id="trip_151" type="car" depart="151" frm="137415945#0" to="683079387#1" /><trip id="trip_152" type="car" depart="152" frm="137415945#0" to="-809772643#1" /><trip id="trip_153" type="car" depart="153" frm="137415945#0" to="134193294#0" /><trip id="trip_154" type="car" depart="154" frm="137415945#0" to="133126030#0" /><trip id="trip_155" type="car" depart="155" frm="137415945#0" to="1254519229#0" /><trip id="trip_156" type="car" depart="156" frm="137415945#0" to="1091883842" /><trip id="trip_157" type="car" depart="157" frm="137415945#0" to="485211947#0" /><trip id="trip_158" type="car" depart="158" frm="137415945#0" to="134193294#0" /><trip id="trip_159" type="car" depart="159" frm="137415945#0" to="1328664748#0" /><trip id="trip_160" type="car" depart="160" frm="137415945#0" to="1254519225#0.109" /><trip id="trip_161" type="car" depart="161" frm="137415945#0" to="1254519229#0" /><trip id="trip_162" type="car" depart="162" frm="137415945#0" to="799091563#0" /><trip id="trip_163" type="car" depart="163" frm="137415945#0" to="1342054204" /><trip id="trip_164" type="car" depart="164" frm="137415945#0" to="1235147073.116" /><trip id="trip_165" type="car" depart="165" frm="137415945#0" to="379698350#0" /><trip id="trip_166" type="car" depart="166" frm="137415945#0" to="138002006#0" /><trip id="trip_167" type="car" depart="167" frm="137415945#0" to="-422986370#2" /><trip id="trip_168" type="car" depart="168" frm="137415945#0" to="1341093415#0" /><trip id="trip_169" type="car" depart="169" frm="137415945#0" to="485211947#0" /><trip id="trip_170" type="car" depart="170" frm="137415945#0" to="134193294#0" /><trip id="trip_171" type="car" depart="171" frm="137415945#0" to="1328664748#0" /><trip id="trip_172" type="car" depart="172" frm="137415945#0" to="1254519225#0.109" /><trip id="trip_173" type="car" depart="173" frm="137415945#0" to="1254519229#0" /><trip id="trip_174" type="car" depart="174" frm="137415945#0" to="799091563#0" /><trip id="trip_175" type="car" depart="175" frm="137415945#0" to="138002016#0" /><trip id="trip_176" type="car" depart="176" frm="137415945#0" to="1341093415#0" /><trip id="trip_177" type="car" depart="177" frm="137415945#0" to="-422986370#2" /><trip id="trip_178" type="car" depart="178" frm="137415945#0" to="133126031#0" /><trip id="trip_179" type="car" depart="179" frm="137415945#0" to="1318793173#0" /><trip id="trip_180" type="car" depart="180" frm="137415945#0" to="430416184" /><trip id="trip_181" type="car" depart="181" frm="137415945#0" to="1342963997" /><trip id="trip_182" type="car" depart="182" frm="137415945#0" to="186407684#0" /><trip id="trip_183" type="car" depart="183" frm="137415945#0" to="1091883842" /><trip id="trip_184" type="car" depart="184" frm="137415945#0" to="186407685" /><trip id="trip_185" type="car" depart="185" frm="137415945#0" to="714011134#0" /><trip id="trip_186" type="car" depart="186" frm="137415945#0" to="1254157399#1" /><trip id="trip_187" type="car" depart="187" frm="137415945#0" to="186410975#0" /><trip id="trip_188" type="car" depart="188" frm="137415945#0" to="485211947#0" /><trip id="trip_189" type="car" depart="189" frm="137415945#0" to="134193294#0" /><trip id="trip_190" type="car" depart="190" frm="137415945#0" to="1328664748#0" /><trip id="trip_191" type="car" depart="191" frm="137415945#0" to="1254519225#0.109" /><trip id="trip_192" type="car" depart="192" frm="137415945#0" to="1254519229#0" /><trip id="trip_193" type="car" depart="193" frm="137415945#0" to="799091563#0" /><trip id="trip_194" type="car" depart="194" frm="137415945#0" to="1341093415#0" /><trip id="trip_195" type="car" depart="195" frm="137415945#0" to="-422986370#2" /><trip id="trip_196" type="car" depart="196" frm="137415945#0" to="133126031#0" /><trip id="trip_197" type="car" depart="197" frm="137415945#0" to="1318793173#0" /><trip id="trip_198" type="car" depart="198" frm="137415945#0" to="1318893695#0" /><trip id="trip_199" type="car" depart="199" frm="137415945#0" to="430416184" /><trip id="trip_200" type="car" depart="200" frm="137415945#0" to="1342963997" /><trip id="trip_201" type="car" depart="201" frm="137415945#0" to="186407684#0" /><trip id="trip_202" type="car" depart="202" frm="137415945#0" to="1091883842" /><trip id="trip_203" type="car" depart="203" frm="137415945#0" to="186407685" /><trip id="trip_204" type="car" depart="204" frm="137415945#0" to="714011134#0" /><trip id="trip_205" type="car" depart="205" frm="137415945#0" to="1254157399#1" /><trip id="trip_206" type="car" depart="206" frm="137415945#0" to="186410975#0" /><trip id="trip_207" type="car" depart="207" frm="137415945#0" to="134193294#0" /><trip id="trip_208" type="car" depart="208" frm="137415945#0" to="1328664748#0" /><trip id="trip_209" type="car" depart="209" frm="137415945#0" to="1341093415#0" /><trip id="trip_210" type="car" depart="210" frm="137415945#0" to="1341093415#0" /><trip id="trip_211" type="car" depart="211" frm="137415945#0" to="-422986370#2" /><trip id="trip_212" type="car" depart="212" frm="137415945#0" to="186407684#0" /><trip id="trip_213" type="car" depart="213" frm="137415945#0" to="186407685" /><trip id="trip_214" type="car" depart="214" frm="137415945#0" to="186409193" /><trip id="trip_215" type="car" depart="215" frm="137415945#0" to="380585336" /><trip id="trip_216" type="car" depart="216" frm="137415945#0" to="683079387#1" /><trip id="trip_217" type="car" depart="217" frm="137415945#0" to="430416184" /><trip id="trip_218" type="car" depart="218" frm="137415945#0" to="1342963997" /><trip id="trip_219" type="car" depart="219" frm="137415945#0" to="186407684#0" /><trip id="trip_220" type="car" depart="220" frm="137415945#0" to="186407685" /><trip id="trip_221" type="car" depart="221" frm="137415945#0" to="714011134#0" /><trip id="trip_222" type="car" depart="222" frm="137415945#0" to="1254157399#1" /><trip id="trip_223" type="car" depart="223" frm="137415945#0" to="186410975#0" /><trip id="trip_224" type="car" depart="224" frm="137415945#0" to="133342692#0" /><trip id="trip_225" type="car" depart="225" frm="137415945#0" to="138002016#0" /><trip id="trip_226" type="car" depart="226" frm="137415945#0" to="133126031#0" /><trip id="trip_227" type="car" depart="227" frm="137415945#0" to="1318793173#0" /><trip id="trip_228" type="car" depart="228" frm="137415945#0" to="1318893695#0" /><trip id="trip_229" type="car" depart="229" frm="137415945#0" to="186407684#0" /><trip id="trip_230" type="car" depart="230" frm="137415945#0" to="1091883842" /><trip id="trip_231" type="car" depart="231" frm="137415945#0" to="186407685" /><trip id="trip_232" type="car" depart="232" frm="137415945#0" to="380585336" /><trip id="trip_233" type="car" depart="233" frm="137415945#0" to="683079387#1" /><trip id="trip_234" type="car" depart="234" frm="137415945#0" to="186410975#0" /><trip id="trip_235" type="car" depart="235" frm="137415945#0" to="1254157399#1" /><trip id="trip_236" type="car" depart="236" frm="137415945#0" to="809719540#0" /><trip id="trip_237" type="car" depart="237" frm="137415945#0" to="1328664744#0" /><trip id="trip_238" type="car" depart="238" frm="137415945#0" to="430416184" /><trip id="trip_239" type="car" depart="239" frm="137415945#0" to="380585336" /><trip id="trip_240" type="car" depart="240" frm="137415945#0" to="683079387#1" /><trip id="trip_241" type="car" depart="241" frm="137415945#0" to="683079387#1" /><trip id="trip_242" type="car" depart="242" frm="137415945#0" to="-809772643#1" /><trip id="trip_243" type="car" depart="243" frm="137415945#0" to="135474719#0" /><trip id="trip_244" type="car" depart="244" frm="137415945#0" to="1253188486#8" /><trip id="trip_245" type="car" depart="245" frm="137415945#0" to="177211987#1" /><trip id="trip_246" type="car" depart="246" frm="137415945#0" to="430416184" /><trip id="trip_247" type="car" depart="247" frm="137415945#0" to="380585336" /><trip id="trip_248" type="car" depart="248" frm="137415945#0" to="683079387#1" /><trip id="trip_249" type="car" depart="249" frm="137415945#0" to="683079387#1" /><trip id="trip_250" type="car" depart="250" frm="137415945#0" to="-809772643#1" /><trip id="trip_251" type="car" depart="251" frm="137415945#0" to="485211947#0" /><trip id="trip_252" type="car" depart="252" frm="137415945#0" to="134193294#0" /><trip id="trip_253" type="car" depart="253" frm="137415945#0" to="1328664748#0" /><trip id="trip_254" type="car" depart="254" frm="137415945#0" to="186409193" /><trip id="trip_255" type="car" depart="255" frm="137415945#0" to="380585336" /><trip id="trip_256" type="car" depart="256" frm="137415945#0" to="683079387#1" /><trip id="trip_257" type="car" depart="257" frm="137415945#0" to="133342692#0" /><trip id="trip_258" type="car" depart="258" frm="137415945#0" to="138002016#0" /><trip id="trip_259" type="car" depart="259" frm="137415945#0" to="-422986370#2" /><trip id="trip_260" type="car" depart="260" frm="137415945#0" to="133126031#0" /><trip id="trip_261" type="car" depart="261" frm="137415945#0" to="1318793173#0" /><trip id="trip_262" type="car" depart="262" frm="137415945#0" to="1318893695#0" /><trip id="trip_263" type="car" depart="263" frm="137415945#0" to="714011134#0" /><trip id="trip_264" type="car" depart="264" frm="137415945#0" to="1254157399#1" /><trip id="trip_265" type="car" depart="265" frm="137415945#0" to="186410975#0" /><trip id="trip_266" type="car" depart="266" frm="137415945#0" to="186407684#0" /><trip id="trip_267" type="car" depart="267" frm="137415945#0" to="1091883842" /><trip id="trip_268" type="car" depart="268" frm="137415945#0" to="186407685" /><trip id="trip_269" type="car" depart="269" frm="137415945#0" to="1310781056" /><trip id="trip_270" type="car" depart="270" frm="137415945#0" to="-809772643#1" /><trip id="trip_271" type="car" depart="271" frm="137415945#0" to="1310781056" /><trip id="trip_272" type="car" depart="272" frm="137415945#0" to="-809772643#1" /><trip id="trip_273" type="car" depart="273" frm="137415945#0" to="134193294#0" /><trip id="trip_274" type="car" depart="274" frm="137415945#0" to="1328664748#0" /><trip id="trip_275" type="car" depart="275" frm="137415945#0" to="430416184" /><trip id="trip_276" type="car" depart="276" frm="137415945#0" to="1342963997" /><trip id="trip_277" type="car" depart="277" frm="137406408#0" to="-138002002#2" /><trip id="trip_278" type="car" depart="278" frm="137406408#0" to="133342692#0" /><trip id="trip_279" type="car" depart="279" frm="137406408#0" to="138002016#0" /><trip id="trip_280" type="car" depart="280" frm="137406408#0" to="133342692#0" /><trip id="trip_281" type="car" depart="281" frm="137406408#0" to="138002016#0" /><trip id="trip_282" type="car" depart="282" frm="137406408#0" to="133126031#0" /><trip id="trip_283" type="car" depart="283" frm="137406408#0" to="1318793173#0" /><trip id="trip_284" type="car" depart="284" frm="137406408#0" to="1318893695#0" /><trip id="trip_285" type="car" depart="285" frm="137406408#0" to="1342054204" /><trip id="trip_286" type="car" depart="286" frm="137406408#0" to="379698350#0" /><trip id="trip_287" type="car" depart="287" frm="137406408#0" to="1091883842" /><trip id="trip_288" type="car" depart="288" frm="137406408#0" to="485211947#0" /><trip id="trip_289" type="car" depart="289" frm="137406408#0" to="134193294#0" /><trip id="trip_290" type="car" depart="290" frm="137406408#0" to="1328664748#0" /><trip id="trip_291" type="car" depart="291" frm="137406408#0" to="1254519225#0.109" /><trip id="trip_292" type="car" depart="292" frm="137406408#0" to="1254519229#0" /><trip id="trip_293" type="car" depart="293" frm="137406408#0" to="799091563#0" /><trip id="trip_294" type="car" depart="294" frm="137406408#0" to="-138002006#3" /><trip id="trip_295" type="car" depart="295" frm="137406408#0" to="380351865#0" /><trip id="trip_296" type="car" depart="296" frm="137406408#0" to="423956929" /><trip id="trip_297" type="car" depart="297" frm="137406408#0" to="133000063" /><trip id="trip_298" type="car" depart="298" frm="137406408#0" to="136617981" /><trip id="trip_299" type="car" depart="299" frm="137406408#0" to="423956929" /><trip id="trip_300" type="car" depart="300" frm="137406408#0" to="133000063" /><trip id="trip_301" type="car" depart="301" frm="137406408#0" to="136617981" /><trip id="trip_302" type="car" depart="302" frm="137406408#0" to="291974733#0" /><trip id="trip_303" type="car" depart="303" frm="137406408#0" to="189835257" /><trip id="trip_304" type="car" depart="304" frm="137406408#0" to="133131666#1" /><trip id="trip_305" type="car" depart="305" frm="137406408#0" to="133000063" /><trip id="trip_306" type="car" depart="306" frm="137406408#0" to="136617981" /><trip id="trip_307" type="car" depart="307" frm="137406408#0" to="-430406005#1" /><trip id="trip_308" type="car" depart="308" frm="137406408#0" to="1369578054" /><trip id="trip_309" type="car" depart="309" frm="137406408#0" to="137415945#0" /><trip id="trip_310" type="car" depart="310" frm="137406408#0" to="135474719#0" /><trip id="trip_311" type="car" depart="311" frm="137406408#0" to="1253188486#8" /><trip id="trip_312" type="car" depart="312" frm="137406408#0" to="177211987#1" /><trip id="trip_313" type="car" depart="313" frm="137406408#0" to="135474719#0" /><trip id="trip_314" type="car" depart="314" frm="137406408#0" to="1328664744#0" /><trip id="trip_315" type="car" depart="315" frm="137406408#0" to="177211987#1" /><trip id="trip_316" type="car" depart="316" frm="137406408#0" to="430416184" /><trip id="trip_317" type="car" depart="317" frm="137406408#0" to="1342963997" /><trip id="trip_318" type="car" depart="318" frm="137406408#0" to="688883939#0" /><trip id="trip_319" type="car" depart="319" frm="137406408#0" to="134194079#0" /><trip id="trip_320" type="car" depart="320" frm="137406408#0" to="138000492#0" /><trip id="trip_321" type="car" depart="321" frm="137406408#0" to="1341093415#0" /><trip id="trip_322" type="car" depart="322" frm="137406408#0" to="-422986370#2" /><trip id="trip_323" type="car" depart="323" frm="137406408#0" to="133126031#0" /><trip id="trip_324" type="car" depart="324" frm="137406408#0" to="1318793173#0" /><trip id="trip_325" type="car" depart="325" frm="137406408#0" to="186407684#0" /><trip id="trip_326" type="car" depart="326" frm="137406408#0" to="186407685" /><trip id="trip_327" type="car" depart="327" frm="137406408#0" to="186409193" /><trip id="trip_328" type="car" depart="328" frm="137406408#0" to="380585336" /><trip id="trip_329" type="car" depart="329" frm="137406408#0" to="683079387#1" /><trip id="trip_330" type="car" depart="330" frm="137406408#0" to="186407684#0" /><trip id="trip_331" type="car" depart="331" frm="137406408#0" to="186407685" /><trip id="trip_332" type="car" depart="332" frm="137406408#0" to="186409193" /><trip id="trip_333" type="car" depart="333" frm="137406408#0" to="380585336" /><trip id="trip_334" type="car" depart="334" frm="137406408#0" to="683079387#1" /><trip id="trip_335" type="car" depart="335" frm="137406408#0" to="1342054204" /><trip id="trip_336" type="car" depart="336" frm="137406408#0" to="1235147073.116" /><trip id="trip_337" type="car" depart="337" frm="137406408#0" to="379698350#0" /><trip id="trip_338" type="car" depart="338" frm="137406408#0" to="-138002002#2" /><trip id="trip_339" type="car" depart="339" frm="137406408#0" to="133342692#0" /><trip id="trip_340" type="car" depart="340" frm="137406408#0" to="138002016#0" /><trip id="trip_341" type="car" depart="341" frm="137406408#0" to="186409193" /><trip id="trip_342" type="car" depart="342" frm="137406408#0" to="380585336" /><trip id="trip_343" type="car" depart="343" frm="137406408#0" to="683079387#1" /><trip id="trip_344" type="car" depart="344" frm="137406408#0" to="138002006#0" /><trip id="trip_345" type="car" depart="345" frm="137406408#0" to="1342054204" /><trip id="trip_346" type="car" depart="346" frm="137406408#0" to="379698350#0" /><trip id="trip_347" type="car" depart="347" frm="137406408#0" to="1254519229#0" /><trip id="trip_348" type="car" depart="348" frm="137406408#0" to="799091563#0" /><trip id="trip_349" type="car" depart="349" frm="137406408#0" to="688883939#0" /><trip id="trip_350" type="car" depart="350" frm="137406408#0" to="138000492#0" /><trip id="trip_351" type="car" depart="351" frm="137406408#0" to="134193294#0" /><trip id="trip_352" type="car" depart="352" frm="137406408#0" to="133126030#0" /><trip id="trip_353" type="car" depart="353" frm="137406408#0" to="688883939#0" /><trip id="trip_354" type="car" depart="354" frm="137406408#0" to="138000492#0" /><trip id="trip_355" type="car" depart="355" frm="137406408#0" to="186407684#0" /><trip id="trip_356" type="car" depart="356" frm="137406408#0" to="1091883842" /><trip id="trip_357" type="car" depart="357" frm="137406408#0" to="186407685" /><trip id="trip_358" type="car" depart="358" frm="137406408#0" to="380585336" /><trip id="trip_359" type="car" depart="359" frm="137406408#0" to="683079387#1" /><trip id="trip_360" type="car" depart="360" frm="137406408#0" to="186410975#0" /><trip id="trip_361" type="car" depart="361" frm="137406408#0" to="1254157399#1" /><trip id="trip_362" type="car" depart="362" frm="137406408#0" to="809719540#0" /><trip id="trip_363" type="car" depart="363" frm="137406408#0" to="1328664744#0" /><trip id="trip_364" type="car" depart="364" frm="137406408#0" to="1253188486#8" /><trip id="trip_365" type="car" depart="365" frm="137406408#0" to="409155823" /><trip id="trip_366" type="car" depart="366" frm="137406408#0" to="791826085" /><trip id="trip_367" type="car" depart="367" frm="137406408#0" to="1341093416#0" /><trip id="trip_368" type="car" depart="368" frm="137406408#0" to="-430406005#1" /><trip id="trip_369" type="car" depart="369" frm="137406408#0" to="137415945#0" /><trip id="trip_370" type="car" depart="370" frm="137406408#0" to="291974733#0" /><trip id="trip_371" type="car" depart="371" frm="137406408#0" to="189835257