<?xml version='1.0' encoding='UTF-8'?>
<routes>
  <vType id="car" accel="1.0" decel="4.5" length="5" maxSpeed="16.6" sigma="0.5"/>
  <route id="route_0" edges="1318793176#1 1318793176#1.11 1318793173#0 291974733#0 688951523 1342054204"/>
  <flow id="route_0" type="car" route="route_0" begin="0" end="1" period="exp(1)" departPos="random" arrivalPos="random"/>
  <route id="route_1" edges="137415945#0 137415945#0.16 379698350#0"/>
  <flow id="route_1" type="car" route="route_1" begin="0" end="1" period="exp(1)" departPos="random" arrivalPos="random"/>
  <route id="route_2" edges="1252820505#0 379698350#0"/>
  <flow id="route_2" type="car" route="route_2" begin="0" end="1" period="exp(3)" departPos="random" arrivalPos="random"/>
  <route id="route_3" edges="1252820505#0 1235147073 1235147073.116"/>
  <flow id="route_3" type="car" route="route_3" begin="0" end="1" period="exp(88)" departPos="random" arrivalPos="random"/>
  <route id="route_4" edges="1252820505#0 137406408#0"/>
  <flow id="route_4" type="car" route="route_4" begin="0" end="1" period="exp(31)" departPos="random" arrivalPos="random"/>
  <route id="route_5" edges="133000078#0 1249078823 1342054204"/>
  <flow id="route_5" type="car" route="route_5" begin="0" end="1" period="exp(3)" departPos="random" arrivalPos="random"/>
  <route id="route_6" edges="291974733#0 688951523 1342054204"/>
  <flow id="route_6" type="car" route="route_6" begin="0" end="1" period="exp(48)" departPos="random" arrivalPos="random"/>
  <route id="route_7" edges="291974733#0 379698350#0"/>
  <flow id="route_7" type="car" route="route_7" begin="0" end="1" period="exp(1)" departPos="random" arrivalPos="random"/>
  <route id="route_8" edges="291974733#0 688951523 1342054204 1252820505#0 1235147073 1235147073.116"/>
  <flow id="route_8" type="car" route="route_8" begin="0" end="1" period="exp(1)" departPos="random" arrivalPos="random"/>
  <route id="route_9" edges="133000078#0 1235147073 1235147073.116"/>
  <flow id="route_9" type="car" route="route_9" begin="0" end="1" period="exp(4)" departPos="random" arrivalPos="random"/>
  <route id="route_10" edges="133000078#0 137406408#0"/>
  <flow id="route_10" type="car" route="route_10" begin="0" end="1" period="exp(86)" departPos="random" arrivalPos="random"/>
  <route id="route_11" edges="137415945#0 137415945#0.16 137406408#0"/>
  <flow id="route_11" type="car" route="route_11" begin="0" end="1" period="exp(502)" departPos="random" arrivalPos="random"/>
</routes>
