<?xml version="1.0" encoding="UTF-8"?>

<!-- generated on 2025-04-05 21:53:11 by Eclipse SUMO netconvert Version 1.20.0
<configuration xmlns:xsi="http://www.w3.org/2001/XMLSchema-instance" xsi:noNamespaceSchemaLocation="http://sumo.dlr.de/xsd/netconvertConfiguration.xsd">

    <input>
        <node-files value="nodes_utm.xml"/>
        <edge-files value="edges_utm.xml"/>
    </input>

    <output>
        <output-file value="network_utm.net.xml"/>
    </output>

</configuration>
-->

<net version="1.20" junctionCornerDetail="5" limitTurnSpeed="5.50" xmlns:xsi="http://www.w3.org/2001/XMLSchema-instance" xsi:noNamespaceSchemaLocation="http://sumo.dlr.de/xsd/net_file.xsd">

    <location netOffset="-458634.22,-4446952.79" convBoundary="0.00,0.00,1165.51,2101.30" origBoundary="458634.22,4446952.79,459799.72,4449054.09" projParameter="!"/>

    <edge id=":abovyan_2_0" function="internal">
        <lane id=":abovyan_2_0_0" index="0" speed="11.20" length="13.31" shape="776.11,1717.83 773.73,1715.65 770.95,1714.11 767.76,1713.21 764.17,1712.94"/>
    </edge>
    <edge id=":abovyan_2_1" function="internal">
        <lane id=":abovyan_2_1_0" index="0" speed="13.89" length="14.21" shape="776.11,1717.83 766.59,1707.27"/>
    </edge>
    <edge id=":abovyan_2_2" function="internal">
        <lane id=":abovyan_2_2_0" index="0" speed="6.91" length="10.78" shape="770.50,1719.79 770.22,1716.76 769.07,1714.61 767.05,1713.34 764.17,1712.94"/>
    </edge>
    <edge id=":abovyan_2_3" function="internal">
        <lane id=":abovyan_2_3_0" index="0" speed="11.99" length="13.46" shape="770.50,1719.79 770.39,1716.03 769.70,1712.68 768.43,1709.76 766.59,1707.27"/>
    </edge>
    <edge id=":abovyan_2-_0" function="internal">
        <lane id=":abovyan_2-_0_0" index="0" speed="6.75" length="10.46" shape="782.27,1697.41 782.27,1700.16 783.27,1702.19 785.26,1703.51 788.25,1704.12"/>
    </edge>
    <edge id=":abovyan_2-_1" function="internal">
        <lane id=":abovyan_2-_1_0" index="0" speed="10.65" length="12.98" shape="782.27,1697.41 782.06,1700.84 782.56,1703.99 783.79,1706.86 785.73,1709.44"/>
    </edge>
    <edge id=":abovyan_2-_2" function="internal">
        <lane id=":abovyan_2-_2_0" index="0" speed="12.56" length="13.37" shape="776.15,1699.29 778.79,1701.53 781.62,1702.94 784.74,1703.73 788.25,1704.12"/>
    </edge>
    <edge id=":abovyan_2-_3" function="internal">
        <lane id=":abovyan_2-_3_0" index="0" speed="13.89" length="13.95" shape="776.15,1699.29 785.73,1709.44"/>
    </edge>
    <edge id=":abovyan_3_0" function="internal">
        <lane id=":abovyan_3_0_0" index="0" speed="13.89" length="15.07" shape="678.19,1612.47 668.14,1601.24"/>
    </edge>
    <edge id=":abovyan_3_1" function="internal">
        <lane id=":abovyan_3_1_0" index="0" speed="10.02" length="13.73" shape="678.19,1612.47 675.89,1609.44 674.53,1606.34 674.12,1603.15 674.67,1599.87"/>
    </edge>
    <edge id=":abovyan_3_2" function="internal">
        <lane id=":abovyan_3_2_0" index="0" speed="7.87" length="12.63" shape="679.00,1604.85 676.51,1605.89 673.87,1605.64 671.08,1604.09 668.14,1601.24"/>
    </edge>
    <edge id=":abovyan_3_3" function="internal">
        <lane id=":abovyan_3_3_0" index="0" speed="5.79" length="11.72" shape="679.00,1604.85 675.93,1606.49 674.19,1606.21 673.77,1604.00 674.67,1599.87"/>
    </edge>
    <edge id=":abovyan_3-_0" function="internal">
        <lane id=":abovyan_3-_0_0" index="0" speed="4.00" length="1.74" shape="678.82,1597.42 679.26,1597.35 679.68,1597.40 680.06,1597.57 680.41,1597.86"/>
    </edge>
    <edge id=":abovyan_4_0" function="internal">
        <lane id=":abovyan_4_0_0" index="0" speed="10.05" length="14.24" shape="525.73,1442.63 524.55,1439.05 522.65,1436.18 520.04,1434.02 516.71,1432.56"/>
    </edge>
    <edge id=":abovyan_4_1" function="internal">
        <lane id=":abovyan_4_1_0" index="0" speed="13.89" length="15.86" shape="525.73,1442.63 524.68,1438.89 523.12,1435.15 521.11,1431.63 518.74,1428.57"/>
    </edge>
    <edge id=":abovyan_4_2" function="internal">
        <lane id=":abovyan_4_2_0" index="0" speed="13.89" length="16.27" shape="525.73,1442.63 522.72,1426.64"/>
    </edge>
    <edge id=":abovyan_4_3" function="internal">
        <lane id=":abovyan_4_3_0" index="0" speed="13.89" length="15.43" shape="529.58,1440.73 526.86,1438.06 523.71,1435.76 520.28,1433.91 516.71,1432.56"/>
    </edge>
    <edge id=":abovyan_4_4" function="internal">
        <lane id=":abovyan_4_4_0" index="0" speed="13.89" length="16.29" shape="529.58,1440.73 518.74,1428.57"/>
    </edge>
    <edge id=":abovyan_4_5" function="internal">
        <lane id=":abovyan_4_5_0" index="0" speed="13.89" length="15.84" shape="529.58,1440.73 527.24,1437.62 525.22,1434.11 523.67,1430.39 522.72,1426.64"/>
    </edge>
    <edge id=":alek_manukyan_2_0" function="internal">
        <lane id=":alek_manukyan_2_0_0" index="0" speed="8.03" length="13.44" shape="947.85,1019.23 947.41,1023.72 947.91,1027.14 949.35,1029.50 951.73,1030.78"/>
    </edge>
    <edge id=":alek_manukyan_2_1" function="internal">
        <lane id=":alek_manukyan_2_1_0" index="0" speed="13.89" length="20.61" shape="947.85,1019.23 947.37,1023.83 947.26,1029.52 947.57,1035.19 948.30,1039.74"/>
    </edge>
    <edge id=":alek_manukyan_2_2" function="internal">
        <lane id=":alek_manukyan_2_2_0" index="0" speed="13.89" length="20.99" shape="947.85,1019.23 946.95,1023.82 945.73,1029.51 944.44,1035.17 943.28,1039.71"/>
    </edge>
    <edge id=":alek_manukyan_2_3" function="internal">
        <lane id=":alek_manukyan_2_3_0" index="0" speed="13.89" length="30.09" shape="939.57,1004.01 942.57,1015.11 945.59,1023.27 948.65,1028.50 951.73,1030.78"/>
    </edge>
    <edge id=":alek_manukyan_2_4" function="internal">
        <lane id=":alek_manukyan_2_4_0" index="0" speed="13.89" length="36.78" shape="939.57,1004.01 948.30,1039.74"/>
    </edge>
    <edge id=":alek_manukyan_2_5" function="internal">
        <lane id=":alek_manukyan_2_5_0" index="0" speed="13.89" length="35.97" shape="939.57,1004.01 940.82,1010.96 942.36,1021.88 943.43,1032.78 943.28,1039.71"/>
    </edge>
    <edge id=":alek_manukyan_2_6" function="internal">
        <lane id=":alek_manukyan_2_6_0" index="0" speed="13.89" length="30.64" shape="936.03,1005.12 940.52,1015.72 944.64,1023.53 948.37,1028.55 951.73,1030.78"/>
    </edge>
    <edge id=":alek_manukyan_2_7" function="internal">
        <lane id=":alek_manukyan_2_7_0" index="0" speed="13.89" length="36.74" shape="936.03,1005.12 938.54,1011.81 942.37,1022.36 946.10,1032.95 948.30,1039.74"/>
    </edge>
    <edge id=":alek_manukyan_2_8" function="internal">
        <lane id=":alek_manukyan_2_8_0" index="0" speed="13.89" length="35.48" shape="936.03,1005.12 938.12,1011.81 940.84,1022.35 942.97,1032.93 943.28,1039.71"/>
    </edge>
    <edge id=":charents_2_0" function="internal">
        <lane id=":charents_2_0_0" index="0" speed="13.89" length="12.26" shape="1167.08,1084.46 1167.02,1096.72"/>
    </edge>
    <edge id=":charents_2_1" function="internal">
        <lane id=":charents_2_1_0" index="0" speed="13.89" length="12.27" shape="1167.08,1084.46 1166.79,1087.72 1165.94,1090.37 1164.74,1092.97 1163.40,1096.05"/>
    </edge>
    <edge id=":charents_2-_0" function="internal">
        <lane id=":charents_2-_0_0" index="0" speed="13.89" length="0.10" shape="1153.66,1076.53 1153.66,1076.53"/>
    </edge>
    <edge id=":charents_2-_1" function="internal">
        <lane id=":charents_2-_1_0" index="0" speed="3.65" length="1.44" shape="1153.66,1076.53 1153.19,1077.89"/>
    </edge>
    <edge id=":charents_2-_10" function="internal">
        <lane id=":charents_2-_10_0" index="0" speed="3.65" length="3.23" shape="1153.19,1077.89 1152.52,1078.48 1151.65,1078.29 1150.57,1077.34"/>
    </edge>
    <edge id=":charents_2-_2" function="internal">
        <lane id=":charents_2-_2_0" index="0" speed="5.57" length="9.24" shape="1146.07,1082.04 1148.90,1082.42 1150.59,1081.76 1151.15,1080.07 1150.57,1077.34"/>
    </edge>
    <edge id=":charents_2-_3" function="internal">
        <lane id=":charents_2-_3_0" index="0" speed="6.67" length="11.52" shape="1146.07,1082.04 1149.43,1082.46 1151.81,1081.68 1153.22,1079.70 1153.66,1076.53"/>
    </edge>
    <edge id=":charents_2-_4" function="internal">
        <lane id=":charents_2-_4_0" index="0" speed="13.89" length="31.92" shape="1141.30,1107.17 1146.50,1097.36 1149.78,1089.12 1151.13,1082.45 1150.57,1077.34"/>
    </edge>
    <edge id=":charents_2-_5" function="internal">
        <lane id=":charents_2-_5_0" index="0" speed="13.89" length="33.14" shape="1141.30,1107.17 1144.30,1101.26 1148.45,1092.10 1152.11,1082.82 1153.66,1076.53"/>
    </edge>
    <edge id=":charents_2-_6" function="internal">
        <lane id=":charents_2-_6_0" index="0" speed="13.89" length="32.20" shape="1144.71,1108.82 1146.64,1102.61 1148.95,1093.11 1150.61,1083.59 1150.57,1077.34"/>
    </edge>
    <edge id=":charents_2-_7" function="internal">
        <lane id=":charents_2-_7_0" index="0" speed="13.89" length="33.57" shape="1144.71,1108.82 1146.89,1102.52 1149.90,1092.81 1152.55,1083.03 1153.66,1076.53"/>
    </edge>
    <edge id=":charents_2-_8" function="internal">
        <lane id=":charents_2-_8_0" index="0" speed="13.89" length="21.34" shape="1153.71,1098.39 1153.46,1093.66 1152.77,1087.76 1151.76,1081.91 1150.57,1077.34"/>
    </edge>
    <edge id=":charents_2-_9" function="internal">
        <lane id=":charents_2-_9_0" index="0" speed="13.89" length="21.86" shape="1153.71,1098.39 1153.66,1076.53"/>
    </edge>
    <edge id=":heratsi_1-_0" function="internal">
        <lane id=":heratsi_1-_0_0" index="0" speed="6.12" length="9.06" shape="873.29,1171.95 872.00,1169.75 870.36,1168.64 868.39,1168.64 866.08,1169.73"/>
    </edge>
    <edge id=":heratsi_1-_1" function="internal">
        <lane id=":heratsi_1-_1_0" index="0" speed="13.89" length="12.03" shape="873.29,1171.95 869.05,1160.70"/>
    </edge>
    <edge id=":isahakyan_1_0" function="internal">
        <lane id=":isahakyan_1_0_0" index="0" speed="10.25" length="12.03" shape="817.05,1509.39 814.81,1511.00 813.04,1513.19 811.75,1515.94 810.93,1519.27"/>
    </edge>
    <edge id=":isahakyan_1_1" function="internal">
        <lane id=":isahakyan_1_1_0" index="0" speed="13.89" length="20.36" shape="817.05,1509.39 813.33,1512.02 809.21,1515.79 805.31,1519.83 802.24,1523.27"/>
    </edge>
    <edge id=":isahakyan_1_2" function="internal">
        <lane id=":isahakyan_1_2_0" index="0" speed="13.89" length="20.56" shape="817.05,1509.39 813.06,1511.73 808.29,1514.78 803.58,1517.93 799.78,1520.54"/>
    </edge>
    <edge id=":isahakyan_1_3" function="internal">
        <lane id=":isahakyan_1_3_0" index="0" speed="13.89" length="37.13" shape="820.01,1483.27 818.14,1490.23 815.27,1501.23 812.50,1512.24 810.93,1519.27"/>
    </edge>
    <edge id=":isahakyan_1_4" function="internal">
        <lane id=":isahakyan_1_4_0" index="0" speed="13.89" length="43.82" shape="820.01,1483.27 817.13,1491.02 811.84,1503.65 806.20,1516.09 802.24,1523.27"/>
    </edge>
    <edge id=":isahakyan_1_5" function="internal">
        <lane id=":isahakyan_1_5_0" index="0" speed="13.89" length="42.54" shape="820.01,1483.27 816.86,1490.72 810.93,1502.64 804.48,1514.19 799.78,1520.54"/>
    </edge>
    <edge id=":isahakyan_1_6" function="internal">
        <lane id=":isahakyan_1_6_0" index="0" speed="13.89" length="37.17" shape="816.66,1482.55 810.93,1519.27"/>
    </edge>
    <edge id=":isahakyan_1_7" function="internal">
        <lane id=":isahakyan_1_7_0" index="0" speed="13.89" length="43.28" shape="816.66,1482.55 814.54,1490.46 810.38,1503.34 805.76,1516.00 802.24,1523.27"/>
    </edge>
    <edge id=":isahakyan_1_8" function="internal">
        <lane id=":isahakyan_1_8_0" index="0" speed="13.89" length="41.82" shape="816.66,1482.55 814.01,1491.80 809.19,1503.80 803.89,1514.68 799.78,1520.54"/>
    </edge>
    <edge id=":isahakyan_2_0" function="internal">
        <lane id=":isahakyan_2_0_0" index="0" speed="7.04" length="10.40" shape="645.58,1714.56 642.70,1714.98 640.62,1716.17 639.33,1718.12 638.84,1720.83"/>
    </edge>
    <edge id=":isahakyan_2_1" function="internal">
        <lane id=":isahakyan_2_1_0" index="0" speed="13.89" length="19.45" shape="645.58,1714.56 641.25,1715.27 636.26,1716.98 631.43,1719.18 627.54,1721.38"/>
    </edge>
    <edge id=":isahakyan_2_2" function="internal">
        <lane id=":isahakyan_2_2_0" index="0" speed="13.89" length="19.97" shape="645.58,1714.56 641.07,1714.85 635.66,1715.51 630.26,1716.35 625.81,1717.19"/>
    </edge>
    <edge id=":isahakyan_2_3" function="internal">
        <lane id=":isahakyan_2_3_0" index="0" speed="13.14" length="12.78" shape="643.01,1709.06 641.01,1711.79 639.76,1714.49 639.10,1717.41 638.84,1720.83"/>
    </edge>
    <edge id=":isahakyan_2_4" function="internal">
        <lane id=":isahakyan_2_4_0" index="0" speed="13.89" length="19.82" shape="643.01,1709.06 639.81,1712.20 635.63,1715.62 631.27,1718.84 627.54,1721.38"/>
    </edge>
    <edge id=":isahakyan_2_5" function="internal">
        <lane id=":isahakyan_2_5_0" index="0" speed="13.89" length="19.24" shape="643.01,1709.06 639.64,1711.78 635.02,1714.16 630.10,1716.02 625.81,1717.19"/>
    </edge>
    <edge id=":isahakyan_3_0" function="internal">
        <lane id=":isahakyan_3_0_0" index="0" speed="8.23" length="11.44" shape="432.62,1852.70 429.27,1852.94 426.60,1853.88 424.61,1855.52 423.31,1857.85"/>
    </edge>
    <edge id=":isahakyan_3_1" function="internal">
        <lane id=":isahakyan_3_1_0" index="0" speed="13.89" length="23.56" shape="432.62,1852.70 427.57,1853.08 420.97,1854.18 414.40,1855.56 409.47,1856.82"/>
    </edge>
    <edge id=":isahakyan_3_2" function="internal">
        <lane id=":isahakyan_3_2_0" index="0" speed="13.89" length="23.77" shape="432.62,1852.70 408.85,1852.96"/>
    </edge>
    <edge id=":isahakyan_3_3" function="internal">
        <lane id=":isahakyan_3_3_0" index="0" speed="13.89" length="19.07" shape="436.73,1844.61 433.10,1847.16 429.08,1850.49 425.52,1854.18 423.31,1857.85"/>
    </edge>
    <edge id=":isahakyan_3_4" function="internal">
        <lane id=":isahakyan_3_4_0" index="0" speed="13.89" length="29.90" shape="436.73,1844.61 431.37,1847.47 423.32,1851.20 415.16,1854.70 409.47,1856.82"/>
    </edge>
    <edge id=":isahakyan_3_5" function="internal">
        <lane id=":isahakyan_3_5_0" index="0" speed="13.89" length="29.21" shape="436.73,1844.61 431.30,1847.04 423.09,1849.74 414.72,1851.97 408.85,1852.96"/>
    </edge>
    <edge id=":isahakyan_3_6" function="internal">
        <lane id=":isahakyan_3_6_0" index="0" speed="13.89" length="19.57" shape="434.09,1841.60 431.27,1845.08 428.11,1849.39 425.25,1853.86 423.31,1857.85"/>
    </edge>
    <edge id=":isahakyan_3_7" function="internal">
        <lane id=":isahakyan_3_7_0" index="0" speed="13.89" length="29.06" shape="434.09,1841.60 429.55,1845.38 422.36,1850.11 414.88,1854.38 409.47,1856.82"/>
    </edge>
    <edge id=":isahakyan_3_8" function="internal">
        <lane id=":isahakyan_3_8_0" index="0" speed="13.89" length="28.50" shape="434.09,1841.60 429.05,1846.37 423.17,1849.86 416.43,1852.05 408.85,1852.96"/>
    </edge>
    <edge id=":khanjyan_1_0" function="internal">
        <lane id=":khanjyan_1_0_0" index="0" speed="8.01" length="9.35" shape="825.58,1196.57 823.54,1198.24 822.17,1200.10 821.48,1202.15 821.46,1204.39"/>
    </edge>
    <edge id=":khanjyan_1_1" function="internal">
        <lane id=":khanjyan_1_1_0" index="0" speed="13.89" length="9.96" shape="825.58,1196.57 823.16,1198.30 821.46,1199.51 819.61,1200.30 816.76,1200.79"/>
    </edge>
    <edge id=":khanjyan_1_2" function="internal">
        <lane id=":khanjyan_1_2_0" index="0" speed="13.89" length="10.50" shape="821.31,1193.94 820.99,1196.97 820.91,1199.17 821.07,1201.37 821.46,1204.39"/>
    </edge>
    <edge id=":khanjyan_1_3" function="internal">
        <lane id=":khanjyan_1_3_0" index="0" speed="7.01" length="8.88" shape="821.31,1193.94 820.73,1196.80 819.78,1198.89 818.46,1200.22 816.76,1200.79"/>
    </edge>
    <edge id=":khanjyan_1-_0" function="internal">
        <lane id=":khanjyan_1-_0_0" index="0" speed="13.89" length="22.06" shape="815.11,1200.62 813.92,1195.93 811.77,1190.14 809.24,1184.48 806.93,1180.21"/>
    </edge>
    <edge id=":khanjyan_1-_1" function="internal">
        <lane id=":khanjyan_1-_1_0" index="0" speed="13.89" length="23.71" shape="815.11,1200.62 810.92,1177.28"/>
    </edge>
    <edge id=":khanjyan_1-_2" function="internal">
        <lane id=":khanjyan_1-_2_0" index="0" speed="13.89" length="23.55" shape="815.11,1200.62 814.77,1195.55 814.76,1188.86 814.99,1182.17 815.40,1177.10"/>
    </edge>
    <edge id=":khanjyan_1-_3" function="internal">
        <lane id=":khanjyan_1-_3_0" index="0" speed="6.57" length="12.29" shape="806.15,1190.00 808.62,1189.07 809.58,1187.13 809.01,1184.18 806.93,1180.21"/>
    </edge>
    <edge id=":khanjyan_1-_4" function="internal">
        <lane id=":khanjyan_1-_4_0" index="0" speed="8.11" length="15.45" shape="806.15,1190.00 809.16,1188.85 810.96,1186.35 811.55,1182.49 810.92,1177.28"/>
    </edge>
    <edge id=":khanjyan_1-_5" function="internal">
        <lane id=":khanjyan_1-_5_0" index="0" speed="9.69" length="17.12" shape="806.15,1190.00 809.63,1188.81 812.33,1186.27 814.25,1182.37 815.40,1177.10"/>
    </edge>
    <edge id=":khanjyan_1-_6" function="internal">
        <lane id=":khanjyan_1-_6_0" index="0" speed="13.44" length="20.86" shape="810.11,1200.09 811.19,1195.29 811.03,1190.38 809.61,1185.35 806.93,1180.21"/>
    </edge>
    <edge id=":khanjyan_1-_7" function="internal">
        <lane id=":khanjyan_1-_7_0" index="0" speed="13.89" length="22.96" shape="810.11,1200.09 811.09,1195.23 811.53,1188.76 811.46,1182.25 810.92,1177.28"/>
    </edge>
    <edge id=":khanjyan_1-_8" function="internal">
        <lane id=":khanjyan_1-_8_0" index="0" speed="13.89" length="23.61" shape="810.11,1200.09 811.56,1195.21 813.15,1188.69 814.54,1182.12 815.40,1177.10"/>
    </edge>
    <edge id=":koryun_1_0" function="internal">
        <lane id=":koryun_1_0_0" index="0" speed="5.46" length="10.36" shape="935.39,1730.59 932.23,1729.24 930.50,1729.42 930.20,1731.13 931.34,1734.38"/>
    </edge>
    <edge id=":koryun_1_1" function="internal">
        <lane id=":koryun_1_1_0" index="0" speed="8.99" length="14.69" shape="935.39,1730.59 930.44,1728.17 926.51,1726.86 923.59,1726.67 921.69,1727.59"/>
    </edge>
    <edge id=":koryun_1_2" function="internal">
        <lane id=":koryun_1_2_0" index="0" speed="12.91" length="15.73" shape="927.06,1719.45 926.89,1721.55 927.54,1724.74 929.03,1729.02 931.34,1734.38"/>
    </edge>
    <edge id=":koryun_1_3" function="internal">
        <lane id=":koryun_1_3_0" index="0" speed="13.89" length="9.86" shape="927.06,1719.45 925.96,1722.15 924.98,1723.90 923.69,1725.46 921.69,1727.59"/>
    </edge>
    <edge id=":koryun_1-_0" function="internal">
        <lane id=":koryun_1-_0_0" index="0" speed="13.89" length="23.95" shape="908.07,1719.73 907.28,1714.75 907.47,1707.95 908.17,1701.08 908.89,1695.93"/>
    </edge>
    <edge id=":koryun_1-_1" function="internal">
        <lane id=":koryun_1-_1_0" index="0" speed="13.89" length="23.49" shape="908.07,1719.73 907.73,1714.88 909.00,1708.36 910.96,1701.84 912.74,1696.98"/>
    </edge>
    <edge id=":koryun_1-_2" function="internal">
        <lane id=":koryun_1-_2_0" index="0" speed="5.57" length="10.59" shape="908.07,1719.73 906.92,1716.11 907.12,1714.06 908.68,1713.59 911.59,1714.68"/>
    </edge>
    <edge id=":koryun_1-_3" function="internal">
        <lane id=":koryun_1-_3_0" index="0" speed="9.69" length="19.93" shape="899.93,1712.23 902.85,1711.38 905.32,1708.38 907.34,1703.23 908.89,1695.93"/>
    </edge>
    <edge id=":koryun_1-_4" function="internal">
        <lane id=":koryun_1-_4_0" index="0" speed="10.91" length="20.95" shape="899.93,1712.23 903.20,1711.46 906.43,1708.66 909.61,1703.83 912.74,1696.98"/>
    </edge>
    <edge id=":koryun_1-_5" function="internal">
        <lane id=":koryun_1-_5_0" index="0" speed="13.89" length="12.03" shape="899.93,1712.23 903.23,1712.44 905.97,1712.72 908.60,1713.37 911.59,1714.68"/>
    </edge>
    <edge id=":koryun_1-_6" function="internal">
        <lane id=":koryun_1-_6_0" index="0" speed="13.89" length="23.94" shape="901.50,1718.53 903.99,1714.15 906.19,1707.71 907.89,1701.03 908.89,1695.93"/>
    </edge>
    <edge id=":koryun_1-_7" function="internal">
        <lane id=":koryun_1-_7_0" index="0" speed="13.89" length="24.37" shape="901.50,1718.53 904.44,1714.28 907.72,1708.13 910.69,1701.79 912.74,1696.98"/>
    </edge>
    <edge id=":koryun_1-_8" function="internal">
        <lane id=":koryun_1-_8_0" index="0" speed="8.11" length="11.58" shape="901.50,1718.53 904.29,1715.99 906.90,1714.51 909.33,1714.07 911.59,1714.68"/>
    </edge>
    <edge id=":koryun_2_0" function="internal">
        <lane id=":koryun_2_0_0" index="0" speed="5.47" length="9.79" shape="788.91,1884.60 785.96,1883.50 784.23,1883.79 783.72,1885.47 784.43,1888.53"/>
    </edge>
    <edge id=":koryun_2_1" function="internal">
        <lane id=":koryun_2_1_0" index="0" speed="11.02" length="17.08" shape="788.91,1884.60 784.22,1882.71 779.94,1881.99 776.08,1882.44 772.64,1884.05"/>
    </edge>
    <edge id=":koryun_2_2" function="internal">
        <lane id=":koryun_2_2_0" index="0" speed="13.89" length="18.74" shape="788.91,1884.60 784.97,1882.77 780.29,1880.89 775.52,1879.30 771.30,1878.34"/>
    </edge>
    <edge id=":koryun_2_3" function="internal">
        <lane id=":koryun_2_3_0" index="0" speed="9.79" length="13.73" shape="783.53,1875.29 782.57,1877.20 782.39,1880.05 783.01,1883.82 784.43,1888.53"/>
    </edge>
    <edge id=":koryun_2_4" function="internal">
        <lane id=":koryun_2_4_0" index="0" speed="13.89" length="14.01" shape="783.53,1875.29 780.96,1877.80 778.35,1879.99 775.60,1882.01 772.64,1884.05"/>
    </edge>
    <edge id=":koryun_2_5" function="internal">
        <lane id=":koryun_2_5_0" index="0" speed="10.38" length="13.08" shape="783.53,1875.29 781.28,1877.06 778.50,1878.16 775.17,1878.59 771.30,1878.34"/>
    </edge>
    <edge id=":koryun_2-_0" function="internal">
        <lane id=":koryun_2-_0_0" index="0" speed="13.89" length="14.22" shape="766.04,1870.21 765.08,1866.73 764.64,1863.29 764.56,1859.79 764.67,1856.15"/>
    </edge>
    <edge id=":koryun_2-_1" function="internal">
        <lane id=":koryun_2-_1_0" index="0" speed="9.50" length="13.12" shape="766.04,1870.21 765.54,1867.41 766.04,1864.51 767.53,1861.51 770.01,1858.39"/>
    </edge>
    <edge id=":koryun_2-_2" function="internal">
        <lane id=":koryun_2-_2_0" index="0" speed="5.78" length="10.91" shape="766.04,1870.21 765.27,1866.91 765.88,1865.05 767.87,1864.65 771.24,1865.70"/>
    </edge>
    <edge id=":koryun_2-_3" function="internal">
        <lane id=":koryun_2-_3_0" index="0" speed="7.08" length="11.41" shape="757.20,1862.58 760.36,1862.46 762.65,1861.35 764.09,1859.25 764.67,1856.15"/>
    </edge>
    <edge id=":koryun_2-_4" function="internal">
        <lane id=":koryun_2-_4_0" index="0" speed="11.00" length="13.97" shape="757.20,1862.58 761.03,1862.64 764.44,1861.96 767.43,1860.55 770.01,1858.39"/>
    </edge>
    <edge id=":koryun_2-_5" function="internal">
        <lane id=":koryun_2-_5_0" index="0" speed="13.89" length="14.44" shape="757.20,1862.58 760.85,1863.01 764.37,1863.59 767.82,1864.44 771.24,1865.70"/>
    </edge>
    <edge id=":koryun_2-_6" function="internal">
        <lane id=":koryun_2-_6_0" index="0" speed="10.99" length="13.97" shape="758.63,1868.19 761.15,1865.96 762.99,1863.21 764.17,1859.94 764.67,1856.15"/>
    </edge>
    <edge id=":koryun_2-_7" function="internal">
        <lane id=":koryun_2-_7_0" index="0" speed="13.89" length="15.03" shape="758.63,1868.19 761.66,1865.97 764.58,1863.59 767.36,1861.06 770.01,1858.39"/>
    </edge>
    <edge id=":koryun_2-_8" function="internal">
        <lane id=":koryun_2-_8_0" index="0" speed="10.10" length="13.42" shape="758.63,1868.19 762.08,1866.19 765.33,1865.11 768.38,1864.95 771.24,1865.70"/>
    </edge>
    <edge id=":koryun_3_0" function="internal">
        <lane id=":koryun_3_0_0" index="0" speed="13.89" length="6.61" shape="587.61,2014.44 585.77,2013.75 584.51,2013.24 583.22,2012.89 581.28,2012.66"/>
    </edge>
    <edge id=":koryun_3_1" function="internal">
        <lane id=":koryun_3_1_0" index="0" speed="9.60" length="6.45" shape="587.04,2010.28 585.49,2011.42 584.36,2012.21 583.13,2012.62 581.28,2012.66"/>
    </edge>
    <edge id=":koryun_3-_0" function="internal">
        <lane id=":koryun_3-_0_0" index="0" speed="7.61" length="10.02" shape="574.15,1992.28 576.15,1991.96 577.92,1990.76 579.46,1988.66 580.77,1985.68"/>
    </edge>
    <edge id=":koryun_3-_1" function="internal">
        <lane id=":koryun_3-_1_0" index="0" speed="12.66" length="11.44" shape="574.15,1992.28 577.32,1992.24 579.74,1991.65 582.00,1990.47 584.68,1988.66"/>
    </edge>
    <edge id=":koryun_3-_2" function="internal">
        <lane id=":koryun_3-_2_0" index="0" speed="13.89" length="11.10" shape="574.15,1992.28 577.28,1992.51 579.67,1992.87 581.99,1993.49 584.95,1994.54"/>
    </edge>
    <edge id=":mesrop_mashtoc_1_0" function="internal">
        <lane id=":mesrop_mashtoc_1_0_0" index="0" speed="13.89" length="9.16" shape="368.13,1997.95 365.43,1997.68 363.61,1997.31 361.81,1996.82 359.17,1996.15"/>
    </edge>
    <edge id=":mesrop_mashtoc_1_1" function="internal">
        <lane id=":mesrop_mashtoc_1_1_0" index="0" speed="10.39" length="9.13" shape="368.13,1997.95 365.62,1997.45 364.13,1996.40 362.89,1994.82 361.15,1992.70"/>
    </edge>
    <edge id=":mesrop_mashtoc_1-_0" function="internal">
        <lane id=":mesrop_mashtoc_1-_0_0" index="0" speed="5.98" length="9.08" shape="381.37,1974.84 380.84,1977.39 381.34,1979.27 382.87,1980.46 385.42,1980.99"/>
    </edge>
    <edge id=":mesrop_mashtoc_1-_1" function="internal">
        <lane id=":mesrop_mashtoc_1-_1_0" index="0" speed="11.83" length="12.16" shape="374.37,1976.89 376.84,1979.03 379.31,1980.19 382.07,1980.73 385.42,1980.99"/>
    </edge>
    <edge id=":mesrop_mashtoc_2_0" function="internal">
        <lane id=":mesrop_mashtoc_2_0_0" index="0" speed="13.89" length="12.05" shape="238.54,1862.39 236.15,1860.15 233.87,1858.67 231.33,1857.63 228.15,1856.71"/>
    </edge>
    <edge id=":mesrop_mashtoc_2_1" function="internal">
        <lane id=":mesrop_mashtoc_2_1_0" index="0" speed="13.89" length="12.30" shape="238.54,1862.39 230.18,1853.37"/>
    </edge>
    <edge id=":mesrop_mashtoc_2_2" function="internal">
        <lane id=":mesrop_mashtoc_2_2_0" index="0" speed="6.35" length="8.73" shape="238.54,1862.39 236.47,1859.90 235.32,1857.82 235.11,1856.16 235.82,1854.90"/>
    </edge>
    <edge id=":mesrop_mashtoc_2_3" function="internal">
        <lane id=":mesrop_mashtoc_2_3_0" index="0" speed="13.89" length="12.18" shape="240.13,1858.55 236.83,1858.52 234.08,1858.18 231.36,1857.57 228.15,1856.71"/>
    </edge>
    <edge id=":mesrop_mashtoc_2_4" function="internal">
        <lane id=":mesrop_mashtoc_2_4_0" index="0" speed="10.49" length="11.56" shape="240.13,1858.55 237.61,1858.29 235.12,1857.34 232.64,1855.70 230.18,1853.37"/>
    </edge>
    <edge id=":mesrop_mashtoc_2_5" function="internal">
        <lane id=":mesrop_mashtoc_2_5_0" index="0" speed="5.19" length="8.95" shape="240.13,1858.55 236.58,1858.43 234.69,1857.78 234.43,1856.61 235.82,1854.90"/>
    </edge>
    <edge id=":mesrop_mashtoc_2-_0" function="internal">
        <lane id=":mesrop_mashtoc_2-_0_0" index="0" speed="13.89" length="16.77" shape="248.18,1842.75 259.57,1855.07"/>
    </edge>
    <edge id=":mesrop_mashtoc_2-_1" function="internal">
        <lane id=":mesrop_mashtoc_2-_1_0" index="0" speed="7.49" length="13.69" shape="248.18,1842.75 251.24,1846.65 252.73,1849.90 252.65,1852.50 251.01,1854.45"/>
    </edge>
    <edge id=":mesrop_mashtoc_2-_2" function="internal">
        <lane id=":mesrop_mashtoc_2-_2_0" index="0" speed="13.89" length="16.23" shape="245.44,1847.48 249.23,1848.61 253.05,1850.32 256.60,1852.50 259.57,1855.07"/>
    </edge>
    <edge id=":mesrop_mashtoc_2-_3" function="internal">
        <lane id=":mesrop_mashtoc_2-_3_0" index="0" speed="6.21" length="12.84" shape="245.44,1847.48 250.28,1848.91 252.82,1850.55 253.06,1852.40 251.01,1854.45"/>
    </edge>
    <edge id=":mesrop_mashtoc_3_0" function="internal">
        <lane id=":mesrop_mashtoc_3_0_0" index="0" speed="10.02" length="13.82" shape="148.33,1763.86 146.51,1762.76 143.67,1762.33 139.81,1762.56 134.93,1763.46"/>
    </edge>
    <edge id=":mesrop_mashtoc_3_1" function="internal">
        <lane id=":mesrop_mashtoc_3_1_0" index="0" speed="13.89" length="13.16" shape="148.33,1763.86 139.43,1754.17"/>
    </edge>
    <edge id=":mesrop_mashtoc_3_2" function="internal">
        <lane id=":mesrop_mashtoc_3_2_0" index="0" speed="11.26" length="12.43" shape="148.33,1763.86 146.74,1761.61 145.70,1758.91 145.19,1755.76 145.22,1752.17"/>
    </edge>
    <edge id=":mesrop_mashtoc_3_3" function="internal">
        <lane id=":mesrop_mashtoc_3_3_0" index="0" speed="5.47" length="9.82" shape="138.30,1768.35 139.75,1765.54 139.67,1763.79 138.06,1763.10 134.93,1763.46"/>
    </edge>
    <edge id=":mesrop_mashtoc_3_4" function="internal">
        <lane id=":mesrop_mashtoc_3_4_0" index="0" speed="9.15" length="15.39" shape="138.30,1768.35 140.60,1764.11 141.55,1760.33 141.16,1757.02 139.43,1754.17"/>
    </edge>
    <edge id=":mesrop_mashtoc_3_5" function="internal">
        <lane id=":mesrop_mashtoc_3_5_0" index="0" speed="13.89" length="17.74" shape="138.30,1768.35 140.50,1764.76 142.65,1760.56 144.37,1756.21 145.22,1752.17"/>
    </edge>
    <edge id=":mesrop_mashtoc_3-_0" function="internal">
        <lane id=":mesrop_mashtoc_3-_0_0" index="0" speed="7.13" length="11.08" shape="168.54,1747.00 168.74,1749.95 169.88,1752.14 171.98,1753.56 175.03,1754.23"/>