<?xml version="1.0" encoding="UTF-8"?>

<!-- generated on 2025-04-10 00:25:19 by Eclipse SUMO sumo Version 1.20.0
-->

<configuration xmlns:xsi="http://www.w3.org/2001/XMLSchema-instance" xsi:noNamespaceSchemaLocation="http://sumo.dlr.de/xsd/sumoConfiguration.xsd">

    <input>
        <net-file value="osm.net.xml"/>
    </input>
    <output>
        <fcd-output value="fcd.xml"/>
        <tripinfo-output value="tripinfo.xml"/>
    </output>

</configuration>
