<?xml version="1.0" encoding="UTF-8"?>

<!-- generated on 2025-04-11 23:05:05 by Eclipse SUMO netedit Version 1.12.0
<configuration xmlns:xsi="http://www.w3.org/2001/XMLSchema-instance" xsi:noNamespaceSchemaLocation="http://sumo.dlr.de/xsd/netconvertConfiguration.xsd">

    <input>
        <sumo-net-file value="/home/ubuntu/Desktop/thesis/live-traffic-data/osm.net.xml"/>
    </input>

    <output>
        <output-file value="/home/ubuntu/Desktop/thesis/live-traffic-data/osm.net.xml"/>
        <output.street-names value="true"/>
    </output>

    <processing>
        <geometry.min-radius.fix.railways value="false"/>
        <geometry.max-grade.fix value="false"/>
        <offset.disable-normalization value="true"/>
        <lefthand value="false"/>
    </processing>

    <junctions>
        <no-turnarounds value="true"/>
        <junctions.corner-detail value="5"/>
        <junctions.limit-turn-speed value="5.5"/>
        <rectangular-lane-cut value="false"/>
    </junctions>

    <pedestrian>
        <walkingareas value="false"/>
    </pedestrian>

    <report>
        <aggregate-warnings value="5"/>
    </report>

</configuration>
-->

<net version="1.9" junctionCornerDetail="5" limitTurnSpeed="5.50" xmlns:xsi="http://www.w3.org/2001/XMLSchema-instance" xsi:noNamespaceSchemaLocation="http://sumo.dlr.de/xsd/net_file.xsd">

    <location netOffset="-458088.05,-4446566.27" convBoundary="0.00,0.00,1850.79,2591.25" origBoundary="44.507617,40.168493,44.533715,40.192850" projParameter="+proj=utm +zone=38 +ellps=WGS84 +datum=WGS84 +units=m +no_defs"/>

    <type id="highway.primary" priority="12" numLanes="2" speed="27.78" disallow="tram rail_urban rail rail_electric rail_fast ship" oneway="0"/>
    <type id="highway.primary_link" priority="7" numLanes="1" speed="22.22" disallow="tram rail_urban rail rail_electric rail_fast ship" oneway="0"/>
    <type id="highway.secondary" priority="11" numLanes="1" speed="27.78" disallow="tram rail_urban rail rail_electric rail_fast ship" oneway="0"/>
    <type id="highway.secondary_link" priority="6" numLanes="1" speed="22.22" disallow="tram rail_urban rail rail_electric rail_fast ship" oneway="0"/>
    <type id="highway.tertiary" priority="10" numLanes="1" speed="22.22" disallow="tram rail_urban rail rail_electric rail_fast ship" oneway="0"/>
    <type id="highway.trunk" priority="13" numLanes="2" speed="27.78" disallow="pedestrian bicycle tram rail_urban rail rail_electric rail_fast ship" oneway="0"/>
    <type id="highway.trunk_link" priority="8" numLanes="1" speed="22.22" disallow="pedestrian bicycle tram rail_urban rail rail_electric rail_fast ship" oneway="0"/>

    <edge id=":10852700972_0" function="internal">
        <lane id=":10852700972_0_0" index="0" disallow="tram rail_urban rail rail_electric rail_fast ship" speed="16.67" length="21.48" shape="1186.47,1964.36 1182.37,1959.22 1179.81,1955.50 1177.64,1951.53 1174.74,1945.61"/>
        <lane id=":10852700972_0_1" index="1" disallow="tram rail_urban rail rail_electric rail_fast ship" speed="16.67" length="21.48" shape="1188.95,1962.34 1184.99,1957.36 1182.51,1953.77 1180.42,1949.92 1177.61,1944.20"/>
        <lane id=":10852700972_0_2" index="2" disallow="tram rail_urban rail rail_electric rail_fast ship" speed="16.67" length="21.48" shape="1191.43,1960.31 1187.60,1955.51 1185.21,1952.03 1183.19,1948.32 1180.48,1942.80"/>
    </edge>
    <edge id=":10852700972_3" function="internal">
        <lane id=":10852700972_3_0" index="0" disallow="tram rail_urban rail rail_electric rail_fast ship" speed="7.61" length="11.20" shape="1191.43,1960.31 1189.24,1957.19 1188.11,1954.48 1188.04,1952.17 1189.02,1950.27"/>
        <lane id=":10852700972_3_1" index="1" disallow="tram rail_urban rail rail_electric rail_fast ship" speed="6.79" length="8.74" shape="1191.43,1960.31 1190.16,1958.27 1189.74,1956.27 1190.15,1954.31 1191.41,1952.40"/>
    </edge>
    <edge id=":10852700972_5" function="internal">
        <lane id=":10852700972_5_0" index="0" disallow="tram rail_urban rail rail_electric rail_fast ship" speed="8.41" length="12.25" shape="1173.55,1956.91 1175.36,1954.59 1176.15,1951.93 1175.95,1948.94 1174.74,1945.61"/>
    </edge>
    <edge id=":10852700972_6" function="internal">
        <lane id=":10852700972_6_0" index="0" disallow="tram rail_urban rail rail_electric rail_fast ship" speed="27.78" length="15.72" shape="1173.55,1956.91 1176.86,1953.81 1179.09,1951.65 1181.22,1949.39 1184.25,1946.01"/>
        <lane id=":10852700972_6_1" index="1" disallow="tram rail_urban rail rail_electric rail_fast ship" speed="27.78" length="15.72" shape="1175.73,1959.25 1179.11,1956.09 1181.38,1953.88 1183.55,1951.58 1186.64,1948.14"/>
        <lane id=":10852700972_6_2" index="2" disallow="tram rail_urban rail rail_electric rail_fast ship" speed="27.78" length="15.72" shape="1177.91,1961.59 1181.36,1958.37 1183.67,1956.12 1185.88,1953.78 1189.02,1950.27"/>
        <lane id=":10852700972_6_3" index="3" disallow="tram rail_urban rail rail_electric rail_fast ship" speed="27.78" length="15.72" shape="1180.10,1963.93 1183.60,1960.65 1185.96,1958.36 1188.21,1955.97 1191.41,1952.40"/>
    </edge>
    <edge id=":11644940304_0" function="internal">
        <lane id=":11644940304_0_0" index="0" disallow="tram rail_urban rail rail_electric rail_fast ship" speed="27.78" length="8.59" shape="780.15,2186.23 782.43,2185.15 783.67,2183.70 784.91,2182.27 787.19,2181.21"/>
        <lane id=":11644940304_0_1" index="1" disallow="tram rail_urban rail rail_electric rail_fast ship" speed="27.78" length="8.59" shape="780.94,2189.34 783.20,2188.25 784.43,2186.81 785.66,2185.38 787.94,2184.33"/>
        <lane id=":11644940304_0_2" index="2" disallow="tram rail_urban rail rail_electric rail_fast ship" speed="27.78" length="8.59" shape="780.94,2189.34 788.68,2187.44"/>
        <lane id=":11644940304_0_3" index="3" disallow="tram rail_urban rail rail_electric rail_fast ship" speed="27.78" length="8.59" shape="780.94,2189.34 783.43,2189.23 785.17,2189.93 786.92,2190.63 789.42,2190.55"/>
    </edge>
    <edge id=":11644940310_0" function="internal">
        <lane id=":11644940310_0_0" index="0" disallow="tram rail_urban rail rail_electric rail_fast ship" speed="16.67" length="22.26" shape="1035.93,2093.65 1021.07,2077.08"/>
        <lane id=":11644940310_0_1" index="1" disallow="tram rail_urban rail rail_electric rail_fast ship" speed="16.67" length="22.26" shape="1038.32,2091.51 1023.45,2074.94"/>
    </edge>
    <edge id=":11644940310_2" function="internal">
        <lane id=":11644940310_2_0" index="0" disallow="tram rail_urban rail rail_electric rail_fast ship" speed="7.92" length="2.59" shape="1038.32,2091.51 1037.17,2089.19"/>
    </edge>
    <edge id=":11644940310_3" function="internal">
        <lane id=":11644940310_3_0" index="0" disallow="tram rail_urban rail rail_electric rail_fast ship" speed="3.65" length="1.44" shape="1038.32,2091.51 1038.12,2090.09"/>
    </edge>
    <edge id=":11644940310_14" function="internal">
        <lane id=":11644940310_14_0" index="0" disallow="tram rail_urban rail rail_electric rail_fast ship" speed="7.92" length="12.31" shape="1037.17,2089.19 1037.07,2088.98 1037.58,2086.14 1039.86,2083.00 1043.90,2079.55"/>
    </edge>
    <edge id=":11644940310_15" function="internal">
        <lane id=":11644940310_15_0" index="0" disallow="tram rail_urban rail rail_electric rail_fast ship" speed="3.65" length="3.23" shape="1038.12,2090.09 1038.45,2089.26 1039.31,2089.02 1040.71,2089.38"/>
    </edge>
    <edge id=":11644940310_4" function="internal">
        <lane id=":11644940310_4_0" index="0" disallow="tram rail_urban rail rail_electric rail_fast ship" speed="7.47" length="11.28" shape="1028.21,2070.66 1030.56,2072.64 1033.02,2073.50 1035.58,2073.22 1038.24,2071.80"/>
    </edge>
    <edge id=":11644940310_5" function="internal">
        <lane id=":11644940310_5_0" index="0" disallow="tram rail_urban rail rail_electric rail_fast ship" speed="16.67" length="22.29" shape="1028.21,2070.66 1043.09,2087.25"/>
        <lane id=":11644940310_5_1" index="1" disallow="tram rail_urban rail rail_electric rail_fast ship" speed="16.67" length="22.29" shape="1025.83,2072.80 1040.71,2089.38"/>
    </edge>
    <edge id=":11644940310_7" function="internal">
        <lane id=":11644940310_7_0" index="0" disallow="tram rail_urban rail rail_electric rail_fast ship" speed="3.65" length="1.44" shape="1025.83,2072.80 1026.04,2074.22"/>
    </edge>
    <edge id=":11644940310_16" function="internal">
        <lane id=":11644940310_16_0" index="0" disallow="tram rail_urban rail rail_electric rail_fast ship" speed="3.65" length="3.23" shape="1026.04,2074.22 1025.71,2075.06 1024.85,2075.30 1023.45,2074.94"/>
    </edge>
    <edge id=":11644940310_8" function="internal">
        <lane id=":11644940310_8_0" index="0" disallow="tram rail_urban rail rail_electric rail_fast ship" speed="6.17" length="8.98" shape="1020.15,2084.59 1022.02,2082.94 1022.81,2081.14 1022.49,2079.19 1021.07,2077.08"/>
    </edge>
    <edge id=":11644940310_9" function="internal">
        <lane id=":11644940310_9_0" index="0" disallow="tram rail_urban rail rail_electric rail_fast ship" speed="27.78" length="22.16" shape="1020.15,2084.59 1038.24,2071.80"/>
        <lane id=":11644940310_9_1" index="1" disallow="tram rail_urban rail rail_electric rail_fast ship" speed="27.78" length="22.16" shape="1022.04,2087.18 1040.13,2074.38"/>
        <lane id=":11644940310_9_2" index="2" disallow="tram rail_urban rail rail_electric rail_fast ship" speed="27.78" length="22.16" shape="1023.93,2089.76 1042.02,2076.97"/>
        <lane id=":11644940310_9_3" index="3" disallow="tram rail_urban rail rail_electric rail_fast ship" speed="27.78" length="22.16" shape="1025.82,2092.35 1043.90,2079.55"/>
    </edge>
    <edge id=":11644940310_13" function="internal">
        <lane id=":11644940310_13_0" index="0" disallow="tram rail_urban rail rail_electric rail_fast ship" speed="9.05" length="16.27" shape="1025.82,2092.35 1030.92,2089.47 1035.10,2088.02 1038.36,2087.99 1040.71,2089.38"/>
    </edge>
    <edge id=":11648561430_0" function="internal">
        <lane id=":11648561430_0_0" index="0" disallow="tram rail_urban rail rail_electric rail_fast ship" speed="22.23" length="7.11" shape="1572.56,1874.72 1574.29,1875.78 1575.68,1876.13 1577.12,1876.39 1579.01,1877.21"/>
        <lane id=":11648561430_0_1" index="1" disallow="tram rail_urban rail rail_electric rail_fast ship" speed="22.23" length="7.11" shape="1572.56,1874.72 1574.06,1876.23 1574.87,1877.51 1575.74,1878.71 1577.41,1879.98"/>
    </edge>
    <edge id=":11648601288_0" function="internal">
        <lane id=":11648601288_0_0" index="0" disallow="tram rail_urban rail rail_electric rail_fast ship" speed="14.62" length="6.08" shape="1293.83,1117.64 1292.90,1115.85 1292.23,1114.60 1291.83,1113.29 1291.70,1111.33"/>
        <lane id=":11648601288_0_1" index="1" disallow="tram rail_urban rail rail_electric rail_fast ship" speed="13.05" length="6.08" shape="1296.73,1116.29 1295.97,1114.88 1295.39,1113.91 1295.02,1112.89 1294.90,1111.34"/>
    </edge>
    <edge id=":11945504645_0" function="internal">
        <lane id=":11945504645_0_0" index="0" disallow="tram rail_urban rail rail_electric rail_fast ship" speed="16.67" length="11.43" shape="1721.17,1527.01 1720.47,1530.62 1719.27,1532.89 1717.62,1535.01 1715.54,1538.19"/>
        <lane id=":11945504645_0_1" index="1" disallow="tram rail_urban rail rail_electric rail_fast ship" speed="16.67" length="11.43" shape="1717.98,1526.71 1717.32,1529.93 1716.19,1531.93 1714.64,1533.80 1712.75,1536.64"/>
        <lane id=":11945504645_0_2" index="2" disallow="tram rail_urban rail rail_electric rail_fast ship" speed="16.67" length="11.43" shape="1714.80,1526.41 1714.18,1529.24 1713.10,1530.97 1711.66,1532.59 1709.95,1535.09"/>
    </edge>
    <edge id=":11945504645_3" function="internal">
        <lane id=":11945504645_3_0" index="0" disallow="tram rail_urban rail rail_electric rail_fast ship" speed="6.76" length="8.40" shape="1711.61,1526.10 1711.12,1528.58 1710.16,1530.42 1708.74,1531.60 1706.86,1532.13"/>
        <lane id=":11945504645_3_1" index="1" disallow="tram rail_urban rail rail_electric rail_fast ship" speed="5.41" length="5.04" shape="1708.43,1525.80 1708.12,1527.13 1707.48,1528.11 1706.51,1528.76 1705.21,1529.08"/>
    </edge>
    <edge id=":11945504650_0" function="internal">
        <lane id=":11945504650_0_0" index="0" disallow="tram rail_urban rail rail_electric rail_fast ship" speed="8.36" length="10.45" shape="1703.12,1532.00 1700.24,1530.38 1698.26,1528.33 1697.17,1525.84 1696.97,1522.92"/>
        <lane id=":11945504650_0_1" index="1" disallow="tram rail_urban rail rail_electric rail_fast ship" speed="6.17" length="10.45" shape="1705.01,1529.10 1702.70,1528.92 1701.12,1527.88 1700.28,1525.96 1700.16,1523.17"/>
    </edge>
    <edge id=":11945504650_2" function="internal">
        <lane id=":11945504650_2_0" index="0" disallow="tram rail_urban rail rail_electric rail_fast ship" speed="16.67" length="10.83" shape="1695.74,1533.60 1696.97,1522.92"/>
        <lane id=":11945504650_2_1" index="1" disallow="tram rail_urban rail rail_electric rail_fast ship" speed="16.67" length="10.83" shape="1698.92,1534.00 1700.16,1523.17"/>
    </edge>
    <edge id=":12133297688_0" function="internal">
        <lane id=":12133297688_0_0" index="0" disallow="tram rail_urban rail rail_electric rail_fast ship" speed="16.66" length="0.30" shape="1473.53,1235.78 1473.58,1236.07"/>
        <lane id=":12133297688_0_1" index="1" disallow="tram rail_urban rail rail_electric rail_fast ship" speed="16.66" length="0.30" shape="1470.38,1236.37 1470.44,1236.67"/>
    </edge>
    <edge id=":12154751993_0" function="internal">
        <lane id=":12154751993_0_0" index="0" disallow="tram rail_urban rail rail_electric rail_fast ship" speed="27.78" length="14.87" shape="1184.38,1945.87 1186.93,1942.97 1188.60,1940.91 1190.14,1938.76 1192.31,1935.57"/>
        <lane id=":12154751993_0_1" index="1" disallow="tram rail_urban rail rail_electric rail_fast ship" speed="27.78" length="14.87" shape="1184.38,1945.87 1187.40,1943.19 1189.93,1941.82 1192.33,1940.35 1194.96,1937.36"/>
        <lane id=":12154751993_0_2" index="2" disallow="tram rail_urban rail rail_electric rail_fast ship" speed="27.78" length="14.87" shape="1184.38,1945.87 1187.94,1943.34 1191.28,1942.74 1194.48,1942.01 1197.61,1939.15"/>
        <lane id=":12154751993_0_3" index="3" disallow="tram rail_urban rail rail_electric rail_fast ship" speed="27.78" length="14.87" shape="1184.38,1945.87 1188.54,1943.45 1192.64,1943.66 1196.59,1943.75 1200.26,1940.95"/>
    </edge>
    <edge id=":12154751993_4" function="internal">
        <lane id=":12154751993_4_0" index="0" disallow="tram rail_urban rail rail_electric rail_fast ship" speed="8.56" length="17.75" shape="1186.77,1947.99 1190.13,1945.43 1193.77,1944.97 1197.68,1946.60 1201.87,1950.34"/>
        <lane id=":12154751993_4_1" index="1" disallow="tram rail_urban rail rail_electric rail_fast ship" speed="7.20" length="12.22" shape="1189.16,1950.12 1191.33,1948.56 1193.78,1948.43 1196.50,1949.74 1199.50,1952.49"/>
        <lane id=":12154751993_4_2" index="2" disallow="tram rail_urban rail rail_electric rail_fast ship" speed="5.53" length="6.75" shape="1191.55,1952.25 1192.53,1951.69 1193.79,1951.89 1195.32,1952.88 1197.12,1954.64"/>
    </edge>
    <edge id=":1310781056-AddedOnRampNode_0" function="internal">
        <lane id=":1310781056-AddedOnRampNode_0_0" index="0" disallow="tram rail_urban rail rail_electric rail_fast ship" speed="27.78" length="8.00" shape="1589.94,1026.13 1584.41,1031.90"/>
        <lane id=":1310781056-AddedOnRampNode_0_1" index="1" disallow="tram rail_urban rail rail_electric rail_fast ship" speed="27.78" length="8.00" shape="1587.64,1023.91 1582.10,1029.68"/>
    </edge>
    <edge id=":1318793176#1-AddedOnRampNode_0" function="internal">
        <lane id=":1318793176#1-AddedOnRampNode_0_0" index="0" disallow="pedestrian bicycle tram rail_urban rail rail_electric rail_fast ship" speed="16.67" length="8.00" shape="911.39,2385.70 905.92,2379.86"/>
        <lane id=":1318793176#1-AddedOnRampNode_0_1" index="1" disallow="pedestrian bicycle tram rail_urban rail rail_electric rail_fast ship" speed="16.67" length="8.00" shape="913.72,2383.51 908.26,2377.67"/>
        <lane id=":1318793176#1-AddedOnRampNode_0_2" index="2" disallow="pedestrian bicycle tram rail_urban rail rail_electric rail_fast ship" speed="16.67" length="8.00" shape="916.06,2381.32 910.59,2375.48"/>
    </edge>
    <edge id=":1318893695#0-AddedOffRampNode_0" function="internal">
        <lane id=":1318893695#0-AddedOffRampNode_0_0" index="0" disallow="pedestrian bicycle tram rail_urban rail rail_electric rail_fast ship" speed="16.67" length="7.34" shape="992.14,2435.10 994.40,2435.32 996.03,2434.71 997.66,2434.09 999.91,2434.32"/>
        <lane id=":1318893695#0-AddedOffRampNode_0_1" index="1" disallow="pedestrian bicycle tram rail_urban rail rail_electric rail_fast ship" speed="16.67" length="7.34" shape="992.14,2435.10 998.89,2437.36"/>
        <lane id=":1318893695#0-AddedOffRampNode_0_2" index="2" disallow="pedestrian bicycle tram rail_urban rail rail_electric rail_fast ship" speed="16.67" length="7.34" shape="991.13,2438.13 997.87,2440.39"/>
        <lane id=":1318893695#0-AddedOffRampNode_0_3" index="3" disallow="pedestrian bicycle tram rail_urban rail rail_electric rail_fast ship" speed="16.67" length="7.34" shape="990.11,2441.16 996.85,2443.42"/>
    </edge>
    <edge id=":1342409420_0" function="internal">
        <lane id=":1342409420_0_0" index="0" disallow="tram rail_urban rail rail_electric rail_fast ship" speed="22.22" length="3.37" shape="1630.04,1872.37 1630.43,1875.72"/>
    </edge>
    <edge id=":1342409420_1" function="internal">
        <lane id=":1342409420_1_0" index="0" disallow="tram rail_urban rail rail_electric rail_fast ship" speed="22.22" length="3.32" shape="1626.86,1872.78 1626.99,1873.76 1627.04,1874.43 1627.02,1875.11 1626.96,1876.09"/>
    </edge>
    <edge id=":1507512148_0" function="internal">
        <lane id=":1507512148_0_0" index="0" disallow="tram rail_urban rail rail_electric rail_fast ship" speed="16.67" length="8.19" shape="738.54,1963.01 734.67,1970.05"/>
        <lane id=":1507512148_0_1" index="1" disallow="tram rail_urban rail rail_electric rail_fast ship" speed="16.67" length="8.19" shape="734.38,1960.24 733.36,1962.47 733.20,1964.26 733.04,1966.04 732.01,1968.27"/>
        <lane id=":1507512148_0_2" index="2" disallow="tram rail_urban rail rail_electric rail_fast ship" speed="16.67" length="8.19" shape="734.38,1960.24 732.97,1962.15 731.87,1963.36 730.77,1964.57 729.35,1966.49"/>
    </edge>
    <edge id=":1509675281_0" function="internal">
        <lane id=":1509675281_0_0" index="0" disallow="tram rail_urban rail rail_electric rail_fast ship" speed="16.67" length="3.00" width="3.33" shape="716.26,1954.16 717.82,1951.59"/>
        <lane id=":1509675281_0_1" index="1" disallow="tram rail_urban rail rail_electric rail_fast ship" speed="16.67" length="3.00" width="3.33" shape="718.93,1955.93 720.59,1953.43"/>
        <lane id=":1509675281_0_2" index="2" disallow="tram rail_urban rail rail_electric rail_fast ship" speed="16.67" length="3.00" width="3.33" shape="721.60,1957.70 723.36,1955.28"/>
    </edge>
    <edge id=":1846770078_0" function="internal">
        <lane id=":1846770078_0_0" index="0" disallow="tram rail_urban rail rail_electric rail_fast ship" speed="19.45" length="3.20" shape="1564.17,1681.05 1565.37,1684.01"/>
    </edge>
    <edge id=":1846770078_1" function="internal">
        <lane id=":1846770078_1_0" index="0" disallow="tram rail_urban rail rail_electric rail_fast ship" speed="19.45" length="2.41" shape="1561.17,1682.16 1561.43,1682.83 1561.61,1683.29 1561.74,1683.76 1561.87,1684.46"/>
    </edge>
    <edge id=":1846770089_0" function="internal">
        <lane id=":1846770089_0_0" index="0" disallow="tram rail_urban rail rail_electric rail_fast ship" speed="22.22" length="23.10" shape="1453.59,1697.41 1451.66,1701.01 1449.72,1705.62 1447.55,1711.47 1444.92,1718.79"/>
    </edge>
    <edge id=":1846770089_1" function="internal">
        <lane id=":1846770089_1_0" index="0" disallow="tram rail_urban rail rail_electric rail_fast ship" speed="22.22" length="22.38" shape="1448.77,1696.12 1448.13,1702.96 1447.79,1707.68 1446.97,1712.29 1444.92,1718.79"/>
        <lane id=":1846770089_1_1" index="1" disallow="tram rail_urban rail rail_electric rail_fast ship" speed="22.22" length="22.38" shape="1445.59,1695.74 1444.98,1702.36 1444.67,1706.94 1443.89,1711.41 1441.91,1717.70"/>
        <lane id=":1846770089_1_2" index="2" disallow="tram rail_urban rail rail_electric rail_fast ship" speed="22.22" length="22.38" shape="1442.42,1695.35 1441.83,1701.76 1441.54,1706.20 1440.81,1710.52 1438.90,1716.62"/>
    </edge>
    <edge id=":1846770095_0" function="internal">
        <lane id=":1846770095_0_0" index="0" disallow="tram rail_urban rail rail_electric rail_fast ship" speed="22.22" length="3.86" shape="1541.90,1700.25 1539.97,1696.91"/>
    </edge>
    <edge id=":1846770095_1" function="internal">
        <lane id=":1846770095_1_0" index="0" disallow="tram rail_urban rail rail_electric rail_fast ship" speed="12.43" length="3.61" shape="1545.04,1698.20 1544.23,1697.51 1543.72,1696.98 1543.31,1696.36 1542.80,1695.42"/>
    </edge>
    <edge id=":1846770097_0" function="internal">
        <lane id=":1846770097_0_0" index="0" disallow="tram rail_urban rail rail_electric rail_fast ship" speed="13.89" length="20.30" shape="1489.27,1493.16 1489.13,1499.82 1489.74,1505.13 1490.45,1509.50 1490.64,1513.36"/>
    </edge>
    <edge id=":1846770097_1" function="internal">
        <lane id=":1846770097_1_0" index="0" disallow="tram rail_urban rail rail_electric rail_fast ship" speed="11.11" length="20.42" shape="1489.27,1493.16 1487.35,1513.48"/>
        <lane id=":1846770097_1_1" index="1" disallow="tram rail_urban rail rail_electric rail_fast ship" speed="11.11" length="20.42" shape="1486.09,1492.85 1484.16,1513.18"/>
    </edge>
    <edge id=":1846770118_0" function="internal">
        <lane id=":1846770118_0_0" index="0" disallow="tram rail_urban rail rail_electric rail_fast ship" speed="22.22" length="0.86" shape="1481.44,1619.16 1481.20,1619.22 1481.03,1619.29 1480.89,1619.39 1480.71,1619.56"/>
    </edge>
    <edge id=":186407689-AddedOnRampNode_0" function="internal">
        <lane id=":186407689-AddedOnRampNode_0_0" index="0" disallow="tram rail_urban rail rail_electric rail_fast ship" speed="20.87" length="7.09" shape="1489.73,1618.30 1487.64,1618.10 1486.20,1618.12 1484.77,1618.37 1482.73,1618.86"/>
    </edge>
    <edge id=":186409203-AddedOffRampNode_0" function="internal">
        <lane id=":186409203-AddedOffRampNode_0_0" index="0" disallow="tram rail_urban rail rail_electric rail_fast ship" speed="16.67" length="8.40" shape="1504.11,1599.56 1506.31,1600.77 1508.20,1600.93 1510.08,1601.09 1512.28,1602.30"/>
        <lane id=":186409203-AddedOffRampNode_0_1" index="1" disallow="tram rail_urban rail rail_electric rail_fast ship" speed="16.67" length="8.40" shape="1504.11,1599.56 1510.21,1604.74"/>
    </edge>
    <edge id=":189240000#0-AddedOnRampNode_0" function="internal">
        <lane id=":189240000#0-AddedOnRampNode_0_0" index="0" disallow="tram rail_urban rail rail_electric rail_fast ship" speed="16.67" length="8.00" shape="1361.91,1649.78 1360.98,1657.73"/>
        <lane id=":189240000#0-AddedOnRampNode_0_1" index="1" disallow="tram rail_urban rail rail_electric rail_fast ship" speed="16.67" length="8.00" shape="1358.73,1649.41 1357.81,1657.36"/>
        <lane id=":189240000#0-AddedOnRampNode_0_2" index="2" disallow="tram rail_urban rail rail_electric rail_fast ship" speed="16.67" length="8.00" shape="1355.56,1649.04 1354.63,1656.98"/>
    </edge>
    <edge id=":1955190585_0" function="internal">
        <lane id=":1955190585_0_0" index="0" disallow="tram rail_urban rail rail_electric rail_fast ship" speed="16.67" length="9.11" shape="1716.46,1489.19 1717.64,1492.12 1720.35,1493.46 1722.98,1494.79 1723.94,1497.70"/>
        <lane id=":1955190585_0_1" index="1" disallow="tram rail_urban rail rail_electric rail_fast ship" speed="16.67" length="9.11" shape="1716.46,1489.19 1717.14,1491.78 1718.73,1493.31 1720.25,1494.83 1720.76,1497.40"/>
        <lane id=":1955190585_0_2" index="2" disallow="tram rail_urban rail rail_electric rail_fast ship" speed="16.67" length="9.11" shape="1716.46,1489.19 1716.64,1491.55 1717.12,1493.15 1717.54,1494.75 1717.57,1497.10"/>
        <lane id=":1955190585_0_3" index="3" disallow="tram rail_urban rail rail_electric rail_fast ship" speed="16.67" length="9.11" shape="1716.46,1489.19 1716.15,1491.49 1715.52,1493.00 1714.85,1494.51 1714.39,1496.80"/>
        <lane id=":1955190585_0_4" index="4" disallow="tram rail_urban rail rail_electric rail_fast ship" speed="16.67" length="9.11" shape="1713.26,1489.11 1712.95,1491.34 1712.33,1492.81 1711.66,1494.27 1711.20,1496.50"/>
    </edge>
    <edge id=":1970926497_0" function="internal">
        <lane id=":1970926497_0_0" index="0" disallow="tram rail_urban rail rail_electric rail_fast ship" speed="7.90" length="3.97" shape="1596.95,1864.56 1597.38,1863.47 1597.56,1862.67 1597.51,1861.86 1597.26,1860.72"/>
    </edge>
    <edge id=":1970926497_1" function="internal">
        <lane id=":1970926497_1_0" index="0" disallow="tram rail_urban rail rail_electric rail_fast ship" speed="16.67" length="3.46" shape="1599.90,1865.80 1601.10,1862.76"/>
        <lane id=":1970926497_1_1" index="1" disallow="tram rail_urban rail rail_electric rail_fast ship" speed="16.67" length="3.46" shape="1602.84,1867.05 1604.11,1863.83"/>
        <lane id=":1970926497_1_2" index="2" disallow="tram rail_urban rail rail_electric rail_fast ship" speed="16.67" length="3.46" shape="1605.79,1868.30 1607.13,1864.90"/>
    </edge>
    <edge id=":1998855567_0" function="internal">
        <lane id=":1998855567_0_0" index="0" disallow="tram rail_urban rail rail_electric rail_fast ship" speed="16.67" length="10.83" shape="1574.00,1896.08 1572.66,1893.94 1571.62,1892.55 1570.38,1891.34 1568.42,1889.75"/>
        <lane id=":1998855567_0_1" index="1" disallow="tram rail_urban rail rail_electric rail_fast ship" speed="16.67" length="10.83" shape="1574.00,1896.08 1572.92,1893.40 1572.68,1891.26 1572.20,1889.31 1570.42,1887.25"/>
        <lane id=":1998855567_0_2" index="2" disallow="tram rail_urban rail rail_electric rail_fast ship" speed="16.67" length="10.83" shape="1574.00,1896.08 1573.12,1892.75 1573.77,1889.92 1574.13,1887.34 1572.42,1884.75"/>
        <lane id=":1998855567_0_3" index="3" disallow="tram rail_urban rail rail_electric rail_fast ship" speed="16.67" length="10.83" shape="1576.73,1894.42 1575.69,1890.83 1576.18,1887.80 1576.37,1885.04 1574.42,1882.25"/>
    </edge>
    <edge id=":2271142977_0" function="internal">
        <lane id=":2271142977_0_0" index="0" disallow="tram rail_urban rail rail_electric rail_fast ship" speed="16.67" length="8.78" shape="1207.44,1589.51 1205.24,1588.29 1203.36,1588.13 1201.48,1587.96 1199.30,1586.72"/>
        <lane id=":2271142977_0_1" index="1" disallow="tram rail_urban rail rail_electric rail_fast ship" speed="16.67" length="8.78" shape="1209.51,1587.07 1207.32,1585.86 1205.44,1585.70 1203.57,1585.54 1201.40,1584.31"/>
    </edge>
    <edge id=":256036887_0" function="internal">
        <lane id=":256036887_0_0" index="0" disallow="tram rail_urban rail rail_electric rail_fast ship" speed="19.45" length="26.23" shape="1630.82,1840.24 1628.43,1847.95 1627.79,1853.91 1628.27,1859.47 1629.21,1865.99"/>
        <lane id=":256036887_0_1" index="1" disallow="tram rail_urban rail rail_electric rail_fast ship" speed="19.45" length="26.31" shape="1630.82,1840.24 1627.91,1847.93 1626.15,1853.79 1625.51,1859.24 1625.95,1865.71"/>
    </edge>
    <edge id=":256036887_2" function="internal">
        <lane id=":256036887_2_0" index="0" disallow="tram rail_urban rail rail_electric rail_fast ship" speed="16.67" length="26.33" shape="1630.82,1840.24 1620.79,1864.68"/>
        <lane id=":256036887_2_1" index="1" disallow="tram rail_urban rail rail_electric rail_fast ship" speed="16.67" length="26.33" shape="1627.83,1839.09 1617.84,1863.45"/>
        <lane id=":256036887_2_2" index="2" disallow="tram rail_urban rail rail_electric rail_fast ship" speed="16.67" length="26.33" shape="1624.84,1837.94 1614.88,1862.22"/>
    </edge>
    <edge id=":287884653_0" function="internal">
        <lane id=":287884653_0_0" index="0" disallow="tram rail_urban rail rail_electric rail_fast ship" speed="3.65" length="4.67" shape="677.07,1696.55 676.86,1695.12 677.19,1694.29 678.06,1694.05 679.45,1694.41"/>
    </edge>
    <edge id=":356721947_0" function="internal">
        <lane id=":356721947_0_0" index="0" disallow="tram rail_urban rail rail_electric rail_fast ship" speed="16.66" length="7.92" shape="1479.05,1579.41 1477.59,1587.20"/>
    </edge>
    <edge id=":356721947_1" function="internal">
        <lane id=":356721947_1_0" index="0" disallow="tram rail_urban rail rail_electric rail_fast ship" speed="3.65" length="1.44" shape="1474.46,1586.51 1475.50,1585.51"/>
    </edge>
    <edge id=":356721947_2" function="internal">
        <lane id=":356721947_2_0" index="0" disallow="tram rail_urban rail rail_electric rail_fast ship" speed="3.65" length="3.23" shape="1475.50,1585.51 1476.36,1585.29 1477.06,1585.85 1477.59,1587.20"/>
    </edge>
    <edge id=":356721948_0" function="internal">
        <lane id=":356721948_0_0" index="0" disallow="tram rail_urban rail rail_electric rail_fast ship" speed="22.22" length="8.49" shape="1472.42,1610.80 1472.15,1613.16 1472.31,1614.84 1472.42,1616.49 1471.98,1618.82"/>