<?xml version='1.0' encoding='utf-8'?>
<routes><vTypeDistribution id="default_mixed"><vType id="car" accel="1.0" decel="4.5" sigma="0.5" length="5" maxSpeed="13.9" guiShape="passenger" probability="0.9" /><vType id="bus" accel="0.8" decel="4.0" sigma="0.5" length="12" maxSpeed="11.1" guiShape="bus" probability="0.09999999999999998" /></vTypeDistribution><route id="route_flow1_duration_20250327_1730" edges="137415945#0 133131666#1" /><flow id="flow1_duration_20250327_1730" type="default_mixed" begin="0" end="186.0" number="74" route="route_flow1_duration_20250327_1730" departPos="random" arrivalPos="random" /><route id="route_flow1_duration_20250327_1740" edges="137415945#0 133131666#1" /><flow id="flow1_duration_20250327_1740" type="default_mixed" begin="0" end="223.0" number="89" route="route_flow1_duration_20250327_1740" departPos="random" arrivalPos="random" /><route id="route_flow1_duration_20250327_1750" edges="137415945#0 133131666#1" /><flow id="flow1_duration_20250327_1750" type="default_mixed" begin="0" end="211.0" number="84" route="route_flow1_duration_20250327_1750" departPos="random" arrivalPos="random" /><route id="route_flow1_duration_20250327_1800" edges="137415945#0 133131666#1" /><flow id="flow1_duration_20250327_1800" type="default_mixed" begin="0" end="213.0" number="85" route="route_flow1_duration_20250327_1800" departPos="random" arrivalPos="random" /><route id="route_flow1_duration_20250327_1810" edges="137415945#0 133131666#1" /><flow id="flow1_duration_20250327_1810" type="default_mixed" begin="0" end="265.0" number="106" route="route_flow1_duration_20250327_1810" departPos="random" arrivalPos="random" /><route id="route_flow1_duration_20250327_1820" edges="137415945#0 133131666#1" /><flow id="flow1_duration_20250327_1820" type="default_mixed" begin="0" end="250.0" number="100" route="route_flow1_duration_20250327_1820" departPos="random" arrivalPos="random" /><route id="route_flow1_duration_20250327_1830" edges="137415945#0 133131666#1" /><flow id="flow1_duration_20250327_1830" type="default_mixed" begin="0" end="242.0" number="96" route="route_flow1_duration_20250327_1830" departPos="random" arrivalPos="random" /><route id="route_flow1_duration_20250327_1840" edges="137415945#0 133131666#1" /><flow id="flow1_duration_20250327_1840" type="default_mixed" begin="0" end="231.0" number="92" route="route_flow1_duration_20250327_1840" departPos="random" arrivalPos="random" /><route id="route_flow1_duration_20250327_1850" edges="137415945#0 133131666#1" /><flow id="flow1_duration_20250327_1850" type="default_mixed" begin="0" end="222.0" number="88" route="route_flow1_duration_20250327_1850" departPos="random" arrivalPos="random" /><route id="route_flow1_duration_20250327_1900" edges="137415945#0 133131666#1" /><flow id="flow1_duration_20250327_1900" type="default_mixed" begin="0" end="217.0" number="86" route="route_flow1_duration_20250327_1900" departPos="random" arrivalPos="random" /><route id="route_flow1_duration_20250327_1910" edges="137415945#0 133131666#1" /><flow id="flow1_duration_20250327_1910" type="default_mixed" begin="0" end="222.0" number="88" route="route_flow1_duration_20250327_1910" departPos="random" arrivalPos="random" /><route id="route_flow1_duration_20250327_1920" edges="137415945#0 133131666#1" /><flow id="flow1_duration_20250327_1920" type="default_mixed" begin="0" end="222.0" number="88" route="route_flow1_duration_20250327_1920" departPos="random" arrivalPos="random" /><route id="route_flow1_duration_20250327_1930" edges="137415945#0 133131666#1" /><flow id="flow1_duration_20250327_1930" type="default_mixed" begin="0" end="221.0" number="88" route="route_flow1_duration_20250327_1930" departPos="random" arrivalPos="random" /><route id="route_flow1_duration_20250327_1940" edges="137415945#0 133131666#1" /><flow id="flow1_duration_20250327_1940" type="default_mixed" begin="0" end="220.0" number="88" route="route_flow1_duration_20250327_1940" departPos="random" arrivalPos="random" /><route id="route_flow1_duration_20250327_1950" edges="137415945#0 133131666#1" /><flow id="flow1_duration_20250327_1950" type="default_mixed" begin="0" end="211.0" number="84" route="route_flow1_duration_20250327_1950" departPos="random" arrivalPos="random" /><route id="route_flow1_duration_20250327_2000" edges="137415945#0 133131666#1" /><flow id="flow1_duration_20250327_2000" type="default_mixed" begin="0" end="206.0" number="82" route="route_flow1_duration_20250327_2000" departPos="random" arrivalPos="random" /><route id="route_flow1_duration_20250327_2010" edges="137415945#0 133131666#1" /><flow id="flow1_duration_20250327_2010" type="default_mixed" begin="0" end="207.0" number="82" route="route_flow1_duration_20250327_2010" departPos="random" arrivalPos="random" /><route id="route_flow1_duration_20250327_2020" edges="137415945#0 133131666#1" /><flow id="flow1_duration_20250327_2020" type="default_mixed" begin="0" end="215.0" number="86" route="route_flow1_duration_20250327_2020" departPos="random" arrivalPos="random" /><route id="route_flow1_duration_20250327_2030" edges="137415945#0 133131666#1" /><flow id="flow1_duration_20250327_2030" type="default_mixed" begin="0" end="212.0" number="84" route="route_flow1_duration_20250327_2030" departPos="random" arrivalPos="random" /><route id="route_flow1_duration_20250327_2040" edges="137415945#0 133131666#1" /><flow id="flow1_duration_20250327_2040" type="default_mixed" begin="0" end="211.0" number="84" route="route_flow1_duration_20250327_2040" departPos="random" arrivalPos="random" /><route id="route_flow1_duration_20250327_2050" edges="137415945#0 133131666#1" /><flow id="flow1_duration_20250327_2050" type="default_mixed" begin="0" end="200.0" number="80" route="route_flow1_duration_20250327_2050" departPos="random" arrivalPos="random" /><route id="route_flow1_duration_20250327_2100" edges="137415945#0 133131666#1" /><flow id="flow1_duration_20250327_2100" type="default_mixed" begin="0" end="209.0" number="83" route="route_flow1_duration_20250327_2100" departPos="random" arrivalPos="random" /><route id="route_flow1_duration_20250327_2110" edges="137415945#0 133131666#1" /><flow id="flow1_duration_20250327_2110" type="default_mixed" begin="0" end="182.0" number="72" route="route_flow1_duration_20250327_2110" departPos="random" arrivalPos="random" /><route id="route_flow1_duration_20250327_2120" edges="137415945#0 133131666#1" /><flow id="flow1_duration_20250327_2120" type="default_mixed" begin="0" end="190.0" number="76" route="route_flow1_duration_20250327_2120" departPos="random" arrivalPos="random" /><route id="route_flow1_duration_20250327_2130" edges="137415945#0 133131666#1" /><flow id="flow1_duration_20250327_2130" type="default_mixed" begin="0" end="208.0" number="83" route="route_flow1_duration_20250327_2130" departPos="random" arrivalPos="random" /><route id="route_flow1_duration_20250327_2140" edges="137415945#0 133131666#1" /><flow id="flow1_duration_20250327_2140" type="default_mixed" begin="0" end="178.0" number="71" route="route_flow1_duration_20250327_2140" departPos="random" arrivalPos="random" /><route id="route_flow1_duration_20250327_2150" edges="137415945#0 133131666#1" /><flow id="flow1_duration_20250327_2150" type="default_mixed" begin="0" end="179.0" number="71" route="route_flow1_duration_20250327_2150" departPos="random" arrivalPos="random" /><route id="route_flow1_duration_20250327_2200" edges="137415945#0 133131666#1" /><flow id="flow1_duration_20250327_2200" type="default_mixed" begin="0" end="177.0" number="70" route="route_flow1_duration_20250327_2200" departPos="random" arrivalPos="random" /><route id="route_flow1_duration_20250327_2210" edges="137415945#0 133131666#1" /><flow id="flow1_duration_20250327_2210" type="default_mixed" begin="0" end="173.0" number="69" route="route_flow1_duration_20250327_2210" departPos="random" arrivalPos="random" /><route id="route_flow1_duration_20250327_2220" edges="137415945#0 133131666#1" /><flow id="flow1_duration_20250327_2220" type="default_mixed" begin="0" end="177.0" number="70" route="route_flow1_duration_20250327_2220" departPos="random" arrivalPos="random" /><route id="route_flow1_duration_20250327_2230" edges="137415945#0 133131666#1" /><flow id="flow1_duration_20250327_2230" type="default_mixed" begin="0" end="168.0" number="67" route="route_flow1_duration_20250327_2230" departPos="random" arrivalPos="random" /><route id="route_flow1_duration_20250327_2240" edges="137415945#0 133131666#1" /><flow id="flow1_duration_20250327_2240" type="default_mixed" begin="0" end="190.0" number="76" route="route_flow1_duration_20250327_2240" departPos="random" arrivalPos="random" /><route id="route_flow1_duration_20250327_2250" edges="137415945#0 133131666#1" /><flow id="flow1_duration_20250327_2250" type="default_mixed" begin="0" end="181.0" number="72" route="route_flow1_duration_20250327_2250" departPos="random" arrivalPos="random" /><route id="route_flow1_duration_20250327_2300" edges="137415945#0 133131666#1" /><flow id="flow1_duration_20250327_2300" type="default_mixed" begin="0" end="189.0" number="75" route="route_flow1_duration_20250327_2300" departPos="random" arrivalPos="random" /><route id="route_flow2_duration_20250327_1730" edges="137415945#0 137406408#0 1254771874#0 138002006#0 1369578052#0" /><flow id="flow2_duration_20250327_1730" type="default_mixed" begin="0" end="258.0" number="103" route="route_flow2_duration_20250327_1730" departPos="random" arrivalPos="random" /><route id="route_flow2_duration_20250327_1740" edges="137415945#0 137406408#0 1254771874#0 138002006#0 1369578052#0" /><flow id="flow2_duration_20250327_1740" type="default_mixed" begin="0" end="298.0" number="119" route="route_flow2_duration_20250327_1740" departPos="random" arrivalPos="random" /><route id="route_flow2_duration_20250327_1750" edges="137415945#0 137406408#0 1254771874#0 138002006#0 1369578052#0" /><flow id="flow2_duration_20250327_1750" type="default_mixed" begin="0" end="309.0" number="123" route="route_flow2_duration_20250327_1750" departPos="random" arrivalPos="random" /><route id="route_flow2_duration_20250327_1800" edges="137415945#0 137406408#0 1254771874#0 138002006#0 1369578052#0" /><flow id="flow2_duration_20250327_1800" type="default_mixed" begin="0" end="284.0" number="113" route="route_flow2_duration_20250327_1800" departPos="random" arrivalPos="random" /><route id="route_flow2_duration_20250327_1810" edges="137415945#0 137406408#0 1254771874#0 138002006#0 1369578052#0" /><flow id="flow2_duration_20250327_1810" type="default_mixed" begin="0" end="336.0" number="134" route="route_flow2_duration_20250327_1810" departPos="random" arrivalPos="random" /><route id="route_flow2_duration_20250327_1820" edges="137415945#0 137406408#0 1254771874#0 138002006#0 1369578052#0" /><flow id="flow2_duration_20250327_1820" type="default_mixed" begin="0" end="337.0" number="134" route="route_flow2_duration_20250327_1820" departPos="random" arrivalPos="random" /><route id="route_flow2_duration_20250327_1830" edges="137415945#0 137406408#0 1254771874#0 138002006#0 1369578052#0" /><flow id="flow2_duration_20250327_1830" type="default_mixed" begin="0" end="320.0" number="128" route="route_flow2_duration_20250327_1830" departPos="random" arrivalPos="random" /><route id="route_flow2_duration_20250327_1840" edges="137415945#0 137406408#0 1254771874#0 138002006#0 1369578052#0" /><flow id="flow2_duration_20250327_1840" type="default_mixed" begin="0" end="290.0" number="116" route="route_flow2_duration_20250327_1840" departPos="random" arrivalPos="random" /><route id="route_flow2_duration_20250327_1850" edges="137415945#0 137406408#0 1254771874#0 138002006#0 1369578052#0" /><flow id="flow2_duration_20250327_1850" type="default_mixed" begin="0" end="286.0" number="114" route="route_flow2_duration_20250327_1850" departPos="random" arrivalPos="random" /><route id="route_flow2_duration_20250327_1900" edges="137415945#0 137406408#0 1254771874#0 138002006#0 1369578052#0" /><flow id="flow2_duration_20250327_1900" type="default_mixed" begin="0" end="282.0" number="112" route="route_flow2_duration_20250327_1900" departPos="random" arrivalPos="random" /><route id="route_flow2_duration_20250327_1910" edges="137415945#0 137406408#0 1254771874#0 138002006#0 1369578052#0" /><flow id="flow2_duration_20250327_1910" type="default_mixed" begin="0" end="346.0" number="138" route="route_flow2_duration_20250327_1910" departPos="random" arrivalPos="random" /><route id="route_flow2_duration_20250327_1920" edges="137415945#0 137406408#0 1254771874#0 138002006#0 1369578052#0" /><flow id="flow2_duration_20250327_1920" type="default_mixed" begin="0" end="305.0" number="122" route="route_flow2_duration_20250327_1920" departPos="random" arrivalPos="random" /><route id="route_flow2_duration_20250327_1930" edges="137415945#0 137406408#0 1254771874#0 138002006#0 1369578052#0" /><flow id="flow2_duration_20250327_1930" type="default_mixed" begin="0" end="296.0" number="118" route="route_flow2_duration_20250327_1930" departPos="random" arrivalPos="random" /><route id="route_flow2_duration_20250327_1940" edges="137415945#0 137406408#0 1254771874#0 138002006#0 1369578052#0" /><flow id="flow2_duration_20250327_1940" type="default_mixed" begin="0" end="294.0" number="117" route="route_flow2_duration_20250327_1940" departPos="random" arrivalPos="random" /><route id="route_flow2_duration_20250327_1950" edges="137415945#0 137406408#0 1254771874#0 138002006#0 1369578052#0" /><flow id="flow2_duration_20250327_1950" type="default_mixed" begin="0" end="295.0" number="118" route="route_flow2_duration_20250327_1950" departPos="random" arrivalPos="random" /><route id="route_flow2_duration_20250327_2000" edges="137415945#0 137406408#0 1254771874#0 138002006#0 1369578052#0" /><flow id="flow2_duration_20250327_2000" type="default_mixed" begin="0" end="278.0" number="111" route="route_flow2_duration_20250327_2000" departPos="random" arrivalPos="random" /><route id="route_flow2_duration_20250327_2010" edges="137415945#0 137406408#0 1254771874#0 138002006#0 1369578052#0" /><flow id="flow2_duration_20250327_2010" type="default_mixed" begin="0" end="274.0" number="109" route="route_flow2_duration_20250327_2010" departPos="random" arrivalPos="random" /><route id="route_flow2_duration_20250327_2020" edges="137415945#0 137406408#0 1254771874#0 138002006#0 1369578052#0" /><flow id="flow2_duration_20250327_2020" type="default_mixed" begin="0" end="262.0" number="104" route="route_flow2_duration_20250327_2020" departPos="random" arrivalPos="random" /><route id="route_flow2_duration_20250327_2030" edges="137415945#0 137406408#0 1254771874#0 138002006#0 1369578052#0" /><flow id="flow2_duration_20250327_2030" type="default_mixed" begin="0" end="253.0" number="101" route="route_flow2_duration_20250327_2030" departPos="random" arrivalPos="random" /><route id="route_flow2_duration_20250327_2040" edges="137415945#0 137406408#0 1254771874#0 138002006#0 1369578052#0" /><flow id="flow2_duration_20250327_2040" type="default_mixed" begin="0" end="251.0" number="100" route="route_flow2_duration_20250327_2040" departPos="random" arrivalPos="random" /><route id="route_flow2_duration_20250327_2050" edges="137415945#0 137406408#0 1254771874#0 138002006#0 1369578052#0" /><flow id="flow2_duration_20250327_2050" type="default_mixed" begin="0" end="248.0" number="99" route="route_flow2_duration_20250327_2050" departPos="random" arrivalPos="random" /><route id="route_flow2_duration_20250327_2100" edges="137415945#0 137406408#0 1254771874#0 138002006#0 1369578052#0" /><flow id="flow2_duration_20250327_2100" type="default_mixed" begin="0" end="245.0" number="98" route="route_flow2_duration_20250327_2100" departPos="random" arrivalPos="random" /><route id="route_flow2_duration_20250327_2110" edges="137415945#0 137406408#0 1254771874#0 138002006#0 1369578052#0" /><flow id="flow2_duration_20250327_2110" type="default_mixed" begin="0" end="223.0" number="89" route="route_flow2_duration_20250327_2110" departPos="random" arrivalPos="random" /><route id="route_flow2_duration_20250327_2120" edges="137415945#0 137406408#0 1254771874#0 138002006#0 1369578052#0" /><flow id="flow2_duration_20250327_2120" type="default_mixed" begin="0" end="224.0" number="89" route="route_flow2_duration_20250327_2120" departPos="random" arrivalPos="random" /><route id="route_flow2_duration_20250327_2130" edges="137415945#0 137406408#0 1254771874#0 138002006#0 1369578052#0" /><flow id="flow2_duration_20250327_2130" type="default_mixed" begin="0" end="238.0" number="95" route="route_flow2_duration_20250327_2130" departPos="random" arrivalPos="random" /><route id="route_flow2_duration_20250327_2140" edges="137415945#0 137406408#0 1254771874#0 138002006#0 1369578052#0" /><flow id="flow2_duration_20250327_2140" type="default_mixed" begin="0" end="226.0" number="90" route="route_flow2_duration_20250327_2140" departPos="random" arrivalPos="random" /><route id="route_flow2_duration_20250327_2150" edges="137415945#0 137406408#0 1254771874#0 138002006#0 1369578052#0" /><flow id="flow2_duration_20250327_2150" type="default_mixed" begin="0" end="215.0" number="86" route="route_flow2_duration_20250327_2150" departPos="random" arrivalPos="random" /><route id="route_flow2_duration_20250327_2200" edges="137415945#0 137406408#0 1254771874#0 138002006#0 1369578052#0" /><flow id="flow2_duration_20250327_2200" type="default_mixed" begin="0" end="215.0" number="86" route="route_flow2_duration_20250327_2200" departPos="random" arrivalPos="random" /><route id="route_flow2_duration_20250327_2210" edges="137415945#0 137406408#0 1254771874#0 138002006#0 1369578052#0" /><flow id="flow2_duration_20250327_2210" type="default_mixed" begin="0" end="203.0" number="81" route="route_flow2_duration_20250327_2210" departPos="random" arrivalPos="random" /><route id="route_flow2_duration_20250327_2220" edges="137415945#0 137406408#0 1254771874#0 138002006#0 1369578052#0" /><flow id="flow2_duration_20250327_2220" type="default_mixed" begin="0" end="206.0" number="82" route="route_flow2_duration_20250327_2220" departPos="random" arrivalPos="random" /><route id="route_flow2_duration_20250327_2230" edges="137415945#0 137406408#0 1254771874#0 138002006#0 1369578052#0" /><flow id="flow2_duration_20250327_2230" type="default_mixed" begin="0" end="207.0" number="82" route="route_flow2_duration_20250327_2230" departPos="random" arrivalPos="random" /><route id="route_flow2_duration_20250327_2240" edges="137415945#0 137406408#0 1254771874#0 138002006#0 1369578052#0" /><flow id="flow2_duration_20250327_2240" type="default_mixed" begin="0" end="220.0" number="88" route="route_flow2_duration_20250327_2240" departPos="random" arrivalPos="random" /><route id="route_flow2_duration_20250327_2250" edges="137415945#0 137406408#0 1254771874#0 138002006#0 1369578052#0" /><flow id="flow2_duration_20250327_2250" type="default_mixed" begin="0" end="217.0" number="86" route="route_flow2_duration_20250327_2250" departPos="random" arrivalPos="random" /><route id="route_flow2_duration_20250327_2300" edges="137415945#0 137406408#0 1254771874#0 138002006#0 1369578052#0" /><flow id="flow2_duration_20250327_2300" type="default_mixed" begin="0" end="224.0" number="89" route="route_flow2_duration_20250327_2300" departPos="random" arrivalPos="random" /><route id="route_flow3_duration_20250327_1730" edges="137415945#0 137406408#0 1254771874#0 138002006#0 380351865#0" /><flow id="flow3_duration_20250327_1730" type="default_mixed" begin="0" end="256.0" number="102" route="route_flow3_duration_20250327_1730" departPos="random" arrivalPos="random" /><route id="route_flow3_duration_20250327_1740" edges="137415945#0 137406408#0 1254771874#0 138002006#0 380351865#0" /><flow id="flow3_duration_20250327_1740" type="default_mixed" begin="0" end="293.0" number="117" route="route_flow3_duration_20250327_1740" departPos="random" arrivalPos="random" /><route id="route_flow3_duration_20250327_1750" edges="137415945#0 137406408#0 1254771874#0 138002006#0 380351865#0" /><flow id="flow3_duration_20250327_1750" type="default_mixed" begin="0" end="280.0" number="112" route="route_flow3_duration_20250327_1750" departPos="random" arrivalPos="random" /><route id="route_flow3_duration_20250327_1800" edges="137415945#0 137406408#0 1254771874#0 138002006#0 380351865#0" /><flow id="flow3_duration_20250327_1800" type="default_mixed" begin="0" end="286.0" number="114" route="route_flow3_duration_20250327_1800" departPos="random" arrivalPos="random" /><route id="route_flow3_duration_20250327_1810" edges="137415945#0 137406408#0 1254771874#0 138002006#0 380351865#0" /><flow id="flow3_duration_20250327_1810" type="default_mixed" begin="0" end="302.0" number="120" route="route_flow3_duration_20250327_1810" departPos="random" arrivalPos="random" /><route id="route_flow3_duration_20250327_1820" edges="137415945#0 137406408#0 1254771874#0 138002006#0 380351865#0" /><flow id="flow3_duration_20250327_1820" type="default_mixed" begin="0" end="324.0" number="129" route="route_flow3_duration_20250327_1820" departPos="random" arrivalPos="random" /><route id="route_flow3_duration_20250327_1830" edges="137415945#0 137406408#0 1254771874#0 138002006#0 380351865#0" /><flow id="flow3_duration_20250327_1830" type="default_mixed" begin="0" end="324.0" number="129" route="route_flow3_duration_20250327_1830" departPos="random" arrivalPos="random" /><route id="route_flow3_duration_20250327_1840" edges="137415945#0 137406408#0 1254771874#0 138002006#0 380351865#0" /><flow id="flow3_duration_20250327_1840" type="default_mixed" begin="0" end="290.0" number="116" route="route_flow3_duration_20250327_1840" departPos="random" arrivalPos="random" /><route id="route_flow3_duration_20250327_1850" edges="137415945#0 137406408#0 1254771874#0 138002006#0 380351865#0" /><flow id="flow3_duration_20250327_1850" type="default_mixed" begin="0" end="301.0" number="120" route="route_flow3_duration_20250327_1850" departPos="random" arrivalPos="random" /><route id="route_flow3_duration_20250327_1900" edges="137415945#0 137406408#0 1254771874#0 138002006#0 380351865#0" /><flow id="flow3_duration_20250327_1900" type="default_mixed" begin="0" end="280.0" number="112" route="route_flow3_duration_20250327_1900" departPos="random" arrivalPos="random" /><route id="route_flow3_duration_20250327_1910" edges="137415945#0 137406408#0 1254771874#0 138002006#0 380351865#0" /><flow id="flow3_duration_20250327_1910" type="default_mixed" begin="0" end="333.0" number="133" route="route_flow3_duration_20250327_1910" departPos="random" arrivalPos="random" /><route id="route_flow3_duration_20250327_1920" edges="137415945#0 137406408#0 1254771874#0 138002006#0 380351865#0" /><flow id="flow3_duration_20250327_1920" type="default_mixed" begin="0" end="305.0" number="122" route="route_flow3_duration_20250327_1920" departPos="random" arrivalPos="random" /><route id="route_flow3_duration_20250327_1930" edges="137415945#0 137406408#0 1254771874#0 138002006#0 380351865#0" /><flow id="flow3_duration_20250327_1930" type="default_mixed" begin="0" end="287.0" number="114" route="route_flow3_duration_20250327_1930" departPos="random" arrivalPos="random" /><route id="route_flow3_duration_20250327_1940" edges="137415945#0 137406408#0 1254771874#0 138002006#0 380351865#0" /><flow id="flow3_duration_20250327_1940" type="default_mixed" begin="0" end="285.0" number="114" route="route_flow3_duration_20250327_1940" departPos="random" arrivalPos="random" /><route id="route_flow3_duration_20250327_1950" edges="137415945#0 137406408#0 1254771874#0 138002006#0 380351865#0" /><flow id="flow3_duration_20250327_1950" type="default_mixed" begin="0" end="303.0" number="121" route="route_flow3_duration_20250327_1950" departPos="random" arrivalPos="random" /><route id="route_flow3_duration_20250327_2000" edges="137415945#0 137406408#0 1254771874#0 138002006#0 380351865#0" /><flow id="flow3_duration_20250327_2000" type="default_mixed" begin="0" end="282.0" number="112" route="route_flow3_duration_20250327_2000" departPos="random" arrivalPos="random" /><route id="route_flow3_duration_20250327_2010" edges="137415945#0 137406408#0 1254771874#0 138002006#0 380351865#0" /><flow id="flow3_duration_20250327_2010" type="default_mixed" begin="0" end="278.0" number="111" route="route_flow3_duration_20250327_2010" departPos="random" arrivalPos="random" /><route id="route_flow3_duration_20250327_2020" edges="137415945#0 137406408#0 1254771874#0 138002006#0 380351865#0" /><flow id="flow3_duration_20250327_2020" type="default_mixed" begin="0" end="270.0" number="108" route="route_flow3_duration_20250327_2020" departPos="random" arrivalPos="random" /><route id="route_flow3_duration_20250327_2030" edges="137415945#0 137406408#0 1254771874#0 138002006#0 380351865#0" /><flow id="flow3_duration_20250327_2030" type="default_mixed" begin="0" end="263.0" number="105" route="route_flow3_duration_20250327_2030" departPos="random" arrivalPos="random" /><route id="route_flow3_duration_20250327_2040" edges="137415945#0 137406408#0 1254771874#0 138002006#0 380351865#0" /><flow id="flow3_duration_20250327_2040" type="default_mixed" begin="0" end="258.0" number="103" route="route_flow3_duration_20250327_2040" departPos="random" arrivalPos="random" /><route id="route_flow3_duration_20250327_2050" edges="137415945#0 137406408#0 1254771874#0 138002006#0 380351865#0" /><flow id="flow3_duration_20250327_2050" type="default_mixed" begin="0" end="269.0" number="107" route="route_flow3_duration_20250327_2050" departPos="random" arrivalPos="random" /><route id="route_flow3_duration_20250327_2100" edges="137415945#0 137406408#0 1254771874#0 138002006#0 380351865#0" /><flow id="flow3_duration_20250327_2100" type="default_mixed" begin="0" end="256.0" number="102" route="route_flow3_duration_20250327_2100" departPos="random" arrivalPos="random" /><route id="route_flow3_duration_20250327_2110" edges="137415945#0 137406408#0 1254771874#0 138002006#0 380351865#0" /><flow id="flow3_duration_20250327_2110" type="default_mixed" begin="0" end="233.0" number="93" route="route_flow3_duration_20250327_2110" departPos="random" arrivalPos="random" /><route id="route_flow3_duration_20250327_2120" edges="137415945#0 137406408#0 1254771874#0 138002006#0 380351865#0" /><flow id="flow3_duration_20250327_2120" type="default_mixed" begin="0" end="231.0" number="92" route="route_flow3_duration_20250327_2120" departPos="random" arrivalPos="random" /><route id="route_flow3_duration_20250327_2130" edges="137415945#0 137406408#0 1254771874#0 138002006#0 380351865#0" /><flow id="flow3_duration_20250327_2130" type="default_mixed" begin="0" end="248.0" number="99" route="route_flow3_duration_20250327_2130" departPos="random" arrivalPos="random" /><route id="route_flow3_duration_20250327_2140" edges="137415945#0 137406408#0 1254771874#0 138002006#0 380351865#0" /><flow id="flow3_duration_20250327_2140" type="default_mixed" begin="0" end="236.0" number="94" route="route_flow3_duration_20250327_2140" departPos="random" arrivalPos="random" /><route id="route_flow3_duration_20250327_2150" edges="137415945#0 137406408#0 1254771874#0 138002006#0 380351865#0" /><flow id="flow3_duration_20250327_2150" type="default_mixed" begin="0" end="232.0" number="92" route="route_flow3_duration_20250327_2150" departPos="random" arrivalPos="random" /><route id="route_flow3_duration_20250327_2200" edges="137415945#0 137406408#0 1254771874#0 138002006#0 380351865#0" /><flow id="flow3_duration_20250327_2200" type="default_mixed" begin="0" end="238.0" number="95" route="route_flow3_duration_20250327_2200" departPos="random" arrivalPos="random" /><route id="route_flow3_duration_20250327_2210" edges="137415945#0 137406408#0 1254771874#0 138002006#0 380351865#0" /><flow id="flow3_duration_20250327_2210" type="default_mixed" begin="0" end="226.0" number="90" route="route_flow3_duration_20250327_2210" departPos="random" arrivalPos="random" /><route id="route_flow3_duration_20250327_2220" edges="137415945#0 137406408#0 1254771874#0 138002006#0 380351865#0" /><flow id="flow3_duration_20250327_2220" type="default_mixed" begin="0" end="222.0" number="88" route="route_flow3_duration_20250327_2220" departPos="random" arrivalPos="random" /><route id="route_flow3_duration_20250327_2230" edges="137415945#0 137406408#0 1254771874#0 138002006#0 380351865#0" /><flow id="flow3_duration_20250327_2230" type="default_mixed" begin="0" end="220.0" number="88" route="route_flow3_duration_20250327_2230" departPos="random" arrivalPos="random" /><route id="route_flow3_duration_20250327_2240" edges="137415945#0 137406408#0 1254771874#0 138002006#0 380351865#0" /><flow id="flow3_duration_20250327_2240" type="default_mixed" begin="0" end="236.0" number="94" route="route_flow3_duration_20250327_2240" departPos="random" arrivalPos="random" /><route id="route_flow3_duration_20250327_2250" edges="137415945#0 137406408#0 1254771874#0 138002006#0 380351865#0" /><flow id="flow3_duration_20250327_2250" type="default_mixed" begin="0" end="229.0" number="91" route="route_flow3_duration_20250327_2250" departPos="random" arrivalPos="random" /><route id="route_flow3_duration_20250327_2300" edges="137415945#0 137406408#0 1254771874#0 138002006#0 380351865#0" /><flow id="flow3_duration_20250327_2300" type="default_mixed" begin="0" end="236.0" number="94" route="route_flow3_duration_20250327_2300" departPos="random" arrivalPos="random" /><route id="route_flow4_duration_20250327_1730" edges="137415945#0 137406408#0 1254771874#0 -422986370#2 -430406005#1" /><flow id="flow4_duration_20250327_1730" type="default_mixed" begin="0" end="320.0" number="128" route="route_flow4_duration_20250327_1730" departPos="random" arrivalPos="random" /><route id="route_flow4_duration_20250327_1740" edges="137415945#0 137406408#0 1254771874#0 -422986370#2 -430406005#1" /><flow id="flow4_duration_20250327_1740" type="default_mixed" begin="0" end="347.0" number="138" route="route_f