<?xml version='1.0' encoding='utf-8'?>
<routes><vTypeDistribution id="mixed_flow1_duration_20250327_1730"><vType id="car_flow1_duration_20250327_1730" accel="1.0" decel="4.5" sigma="0.5" length="5" maxSpeed="4.44" guiShape="passenger" probability="0.9" /><vType id="bus_flow1_duration_20250327_1730" accel="0.8" decel="4.0" sigma="0.5" length="12" maxSpeed="3.84" guiShape="bus" probability="0.09999999999999998" /></vTypeDistribution><route id="route_flow1_duration_20250327_1730" edges="137415945#0 137406408#0 133126040#0 1318893695#0 133131666#1" /><flow id="flow1_duration_20250327_1730" type="mixed_flow1_duration_20250327_1730" begin="0" end="186.0" number="74" route="route_flow1_duration_20250327_1730" departPos="random" arrivalPos="random" /><vTypeDistribution id="mixed_flow1_duration_20250327_1740"><vType id="car_flow1_duration_20250327_1740" accel="1.0" decel="4.5" sigma="0.5" length="5" maxSpeed="3.7" guiShape="passenger" probability="0.9" /><vType id="bus_flow1_duration_20250327_1740" accel="0.8" decel="4.0" sigma="0.5" length="12" maxSpeed="3.2" guiShape="bus" probability="0.09999999999999998" /></vTypeDistribution><route id="route_flow1_duration_20250327_1740" edges="137415945#0 137406408#0 133126040#0 1318893695#0 133131666#1" /><flow id="flow1_duration_20250327_1740" type="mixed_flow1_duration_20250327_1740" begin="0" end="223.0" number="89" route="route_flow1_duration_20250327_1740" departPos="random" arrivalPos="random" /><vTypeDistribution id="mixed_flow1_duration_20250327_1750"><vType id="car_flow1_duration_20250327_1750" accel="1.0" decel="4.5" sigma="0.5" length="5" maxSpeed="3.92" guiShape="passenger" probability="0.9" /><vType id="bus_flow1_duration_20250327_1750" accel="0.8" decel="4.0" sigma="0.5" length="12" maxSpeed="3.38" guiShape="bus" probability="0.09999999999999998" /></vTypeDistribution><route id="route_flow1_duration_20250327_1750" edges="137415945#0 137406408#0 133126040#0 1318893695#0 133131666#1" /><flow id="flow1_duration_20250327_1750" type="mixed_flow1_duration_20250327_1750" begin="0" end="211.0" number="84" route="route_flow1_duration_20250327_1750" departPos="random" arrivalPos="random" /><vTypeDistribution id="mixed_flow1_duration_20250327_1800"><vType id="car_flow1_duration_20250327_1800" accel="1.0" decel="4.5" sigma="0.5" length="5" maxSpeed="3.88" guiShape="passenger" probability="0.9" /><vType id="bus_flow1_duration_20250327_1800" accel="0.8" decel="4.0" sigma="0.5" length="12" maxSpeed="3.35" guiShape="bus" probability="0.09999999999999998" /></vTypeDistribution><route id="route_flow1_duration_20250327_1800" edges="137415945#0 137406408#0 133126040#0 1318893695#0 133131666#1" /><flow id="flow1_duration_20250327_1800" type="mixed_flow1_duration_20250327_1800" begin="0" end="213.0" number="85" route="route_flow1_duration_20250327_1800" departPos="random" arrivalPos="random" /><vTypeDistribution id="mixed_flow1_duration_20250327_1810"><vType id="car_flow1_duration_20250327_1810" accel="1.0" decel="4.5" sigma="0.5" length="5" maxSpeed="3.12" guiShape="passenger" probability="0.9" /><vType id="bus_flow1_duration_20250327_1810" accel="0.8" decel="4.0" sigma="0.5" length="12" maxSpeed="2.69" guiShape="bus" probability="0.09999999999999998" /></vTypeDistribution><route id="route_flow1_duration_20250327_1810" edges="137415945#0 137406408#0 133126040#0 1318893695#0 133131666#1" /><flow id="flow1_duration_20250327_1810" type="mixed_flow1_duration_20250327_1810" begin="0" end="265.0" number="106" route="route_flow1_duration_20250327_1810" departPos="random" arrivalPos="random" /><vTypeDistribution id="mixed_flow1_duration_20250327_1820"><vType id="car_flow1_duration_20250327_1820" accel="1.0" decel="4.5" sigma="0.5" length="5" maxSpeed="3.3" guiShape="passenger" probability="0.9" /><vType id="bus_flow1_duration_20250327_1820" accel="0.8" decel="4.0" sigma="0.5" length="12" maxSpeed="2.85" guiShape="bus" probability="0.09999999999999998" /></vTypeDistribution><route id="route_flow1_duration_20250327_1820" edges="137415945#0 137406408#0 133126040#0 1318893695#0 133131666#1" /><flow id="flow1_duration_20250327_1820" type="mixed_flow1_duration_20250327_1820" begin="0" end="250.0" number="100" route="route_flow1_duration_20250327_1820" departPos="random" arrivalPos="random" /><vTypeDistribution id="mixed_flow1_duration_20250327_1830"><vType id="car_flow1_duration_20250327_1830" accel="1.0" decel="4.5" sigma="0.5" length="5" maxSpeed="3.41" guiShape="passenger" probability="0.9" /><vType id="bus_flow1_duration_20250327_1830" accel="0.8" decel="4.0" sigma="0.5" length="12" maxSpeed="2.95" guiShape="bus" probability="0.09999999999999998" /></vTypeDistribution><route id="route_flow1_duration_20250327_1830" edges="137415945#0 137406408#0 133126040#0 1318893695#0 133131666#1" /><flow id="flow1_duration_20250327_1830" type="mixed_flow1_duration_20250327_1830" begin="0" end="242.0" number="96" route="route_flow1_duration_20250327_1830" departPos="random" arrivalPos="random" /><vTypeDistribution id="mixed_flow1_duration_20250327_1840"><vType id="car_flow1_duration_20250327_1840" accel="1.0" decel="4.5" sigma="0.5" length="5" maxSpeed="3.58" guiShape="passenger" probability="0.9" /><vType id="bus_flow1_duration_20250327_1840" accel="0.8" decel="4.0" sigma="0.5" length="12" maxSpeed="3.09" guiShape="bus" probability="0.09999999999999998" /></vTypeDistribution><route id="route_flow1_duration_20250327_1840" edges="137415945#0 137406408#0 133126040#0 1318893695#0 133131666#1" /><flow id="flow1_duration_20250327_1840" type="mixed_flow1_duration_20250327_1840" begin="0" end="231.0" number="92" route="route_flow1_duration_20250327_1840" departPos="random" arrivalPos="random" /><vTypeDistribution id="mixed_flow1_duration_20250327_1850"><vType id="car_flow1_duration_20250327_1850" accel="1.0" decel="4.5" sigma="0.5" length="5" maxSpeed="3.72" guiShape="passenger" probability="0.9" /><vType id="bus_flow1_duration_20250327_1850" accel="0.8" decel="4.0" sigma="0.5" length="12" maxSpeed="3.21" guiShape="bus" probability="0.09999999999999998" /></vTypeDistribution><route id="route_flow1_duration_20250327_1850" edges="137415945#0 137406408#0 133126040#0 1318893695#0 133131666#1" /><flow id="flow1_duration_20250327_1850" type="mixed_flow1_duration_20250327_1850" begin="0" end="222.0" number="88" route="route_flow1_duration_20250327_1850" departPos="random" arrivalPos="random" /><vTypeDistribution id="mixed_flow1_duration_20250327_1900"><vType id="car_flow1_duration_20250327_1900" accel="1.0" decel="4.5" sigma="0.5" length="5" maxSpeed="3.81" guiShape="passenger" probability="0.9" /><vType id="bus_flow1_duration_20250327_1900" accel="0.8" decel="4.0" sigma="0.5" length="12" maxSpeed="3.29" guiShape="bus" probability="0.09999999999999998" /></vTypeDistribution><route id="route_flow1_duration_20250327_1900" edges="137415945#0 137406408#0 133126040#0 1318893695#0 133131666#1" /><flow id="flow1_duration_20250327_1900" type="mixed_flow1_duration_20250327_1900" begin="0" end="217.0" number="86" route="route_flow1_duration_20250327_1900" departPos="random" arrivalPos="random" /><vTypeDistribution id="mixed_flow1_duration_20250327_1910"><vType id="car_flow1_duration_20250327_1910" accel="1.0" decel="4.5" sigma="0.5" length="5" maxSpeed="3.72" guiShape="passenger" probability="0.9" /><vType id="bus_flow1_duration_20250327_1910" accel="0.8" decel="4.0" sigma="0.5" length="12" maxSpeed="3.21" guiShape="bus" probability="0.09999999999999998" /></vTypeDistribution><route id="route_flow1_duration_20250327_1910" edges="137415945#0 137406408#0 133126040#0 1318893695#0 133131666#1" /><flow id="flow1_duration_20250327_1910" type="mixed_flow1_duration_20250327_1910" begin="0" end="222.0" number="88" route="route_flow1_duration_20250327_1910" departPos="random" arrivalPos="random" /><vTypeDistribution id="mixed_flow1_duration_20250327_1920"><vType id="car_flow1_duration_20250327_1920" accel="1.0" decel="4.5" sigma="0.5" length="5" maxSpeed="3.72" guiShape="passenger" probability="0.9" /><vType id="bus_flow1_duration_20250327_1920" accel="0.8" decel="4.0" sigma="0.5" length="12" maxSpeed="3.21" guiShape="bus" probability="0.09999999999999998" /></vTypeDistribution><route id="route_flow1_duration_20250327_1920" edges="137415945#0 137406408#0 133126040#0 1318893695#0 133131666#1" /><flow id="flow1_duration_20250327_1920" type="mixed_flow1_duration_20250327_1920" begin="0" end="222.0" number="88" route="route_flow1_duration_20250327_1920" departPos="random" arrivalPos="random" /><vTypeDistribution id="mixed_flow1_duration_20250327_1930"><vType id="car_flow1_duration_20250327_1930" accel="1.0" decel="4.5" sigma="0.5" length="5" maxSpeed="3.74" guiShape="passenger" probability="0.9" /><vType id="bus_flow1_duration_20250327_1930" accel="0.8" decel="4.0" sigma="0.5" length="12" maxSpeed="3.23" guiShape="bus" probability="0.09999999999999998" /></vTypeDistribution><route id="route_flow1_duration_20250327_1930" edges="137415945#0 137406408#0 133126040#0 1318893695#0 133131666#1" /><flow id="flow1_duration_20250327_1930" type="mixed_flow1_duration_20250327_1930" begin="0" end="221.0" number="88" route="route_flow1_duration_20250327_1930" departPos="random" arrivalPos="random" /><vTypeDistribution id="mixed_flow1_duration_20250327_1940"><vType id="car_flow1_duration_20250327_1940" accel="1.0" decel="4.5" sigma="0.5" length="5" maxSpeed="3.76" guiShape="passenger" probability="0.9" /><vType id="bus_flow1_duration_20250327_1940" accel="0.8" decel="4.0" sigma="0.5" length="12" maxSpeed="3.24" guiShape="bus" probability="0.09999999999999998" /></vTypeDistribution><route id="route_flow1_duration_20250327_1940" edges="137415945#0 137406408#0 133126040#0 1318893695#0 133131666#1" /><flow id="flow1_duration_20250327_1940" type="mixed_flow1_duration_20250327_1940" begin="0" end="220.0" number="88" route="route_flow1_duration_20250327_1940" departPos="random" arrivalPos="random" /><vTypeDistribution id="mixed_flow1_duration_20250327_1950"><vType id="car_flow1_duration_20250327_1950" accel="1.0" decel="4.5" sigma="0.5" length="5" maxSpeed="3.92" guiShape="passenger" probability="0.9" /><vType id="bus_flow1_duration_20250327_1950" accel="0.8" decel="4.0" sigma="0.5" length="12" maxSpeed="3.38" guiShape="bus" probability="0.09999999999999998" /></vTypeDistribution><route id="route_flow1_duration_20250327_1950" edges="137415945#0 137406408#0 133126040#0 1318893695#0 133131666#1" /><flow id="flow1_duration_20250327_1950" type="mixed_flow1_duration_20250327_1950" begin="0" end="211.0" number="84" route="route_flow1_duration_20250327_1950" departPos="random" arrivalPos="random" /><vTypeDistribution id="mixed_flow1_duration_20250327_2000"><vType id="car_flow1_duration_20250327_2000" accel="1.0" decel="4.5" sigma="0.5" length="5" maxSpeed="4.01" guiShape="passenger" probability="0.9" /><vType id="bus_flow1_duration_20250327_2000" accel="0.8" decel="4.0" sigma="0.5" length="12" maxSpeed="3.46" guiShape="bus" probability="0.09999999999999998" /></vTypeDistribution><route id="route_flow1_duration_20250327_2000" edges="137415945#0 137406408#0 133126040#0 1318893695#0 133131666#1" /><flow id="flow1_duration_20250327_2000" type="mixed_flow1_duration_20250327_2000" begin="0" end="206.0" number="82" route="route_flow1_duration_20250327_2000" departPos="random" arrivalPos="random" /><vTypeDistribution id="mixed_flow1_duration_20250327_2010"><vType id="car_flow1_duration_20250327_2010" accel="1.0" decel="4.5" sigma="0.5" length="5" maxSpeed="3.99" guiShape="passenger" probability="0.9" /><vType id="bus_flow1_duration_20250327_2010" accel="0.8" decel="4.0" sigma="0.5" length="12" maxSpeed="3.45" guiShape="bus" probability="0.09999999999999998" /></vTypeDistribution><route id="route_flow1_duration_20250327_2010" edges="137415945#0 137406408#0 133126040#0 1318893695#0 133131666#1" /><flow id="flow1_duration_20250327_2010" type="mixed_flow1_duration_20250327_2010" begin="0" end="207.0" number="82" route="route_flow1_duration_20250327_2010" departPos="random" arrivalPos="random" /><vTypeDistribution id="mixed_flow1_duration_20250327_2020"><vType id="car_flow1_duration_20250327_2020" accel="1.0" decel="4.5" sigma="0.5" length="5" maxSpeed="3.84" guiShape="passenger" probability="0.9" /><vType id="bus_flow1_duration_20250327_2020" accel="0.8" decel="4.0" sigma="0.5" length="12" maxSpeed="3.32" guiShape="bus" probability="0.09999999999999998" /></vTypeDistribution><route id="route_flow1_duration_20250327_2020" edges="137415945#0 137406408#0 133126040#0 1318893695#0 133131666#1" /><flow id="flow1_duration_20250327_2020" type="mixed_flow1_duration_20250327_2020" begin="0" end="215.0" number="86" route="route_flow1_duration_20250327_2020" departPos="random" arrivalPos="random" /><vTypeDistribution id="mixed_flow1_duration_20250327_2030"><vType id="car_flow1_duration_20250327_2030" accel="1.0" decel="4.5" sigma="0.5" length="5" maxSpeed="3.9" guiShape="passenger" probability="0.9" /><vType id="bus_flow1_duration_20250327_2030" accel="0.8" decel="4.0" sigma="0.5" length="12" maxSpeed="3.37" guiShape="bus" probability="0.09999999999999998" /></vTypeDistribution><route id="route_flow1_duration_20250327_2030" edges="137415945#0 137406408#0 133126040#0 1318893695#0 133131666#1" /><flow id="flow1_duration_20250327_2030" type="mixed_flow1_duration_20250327_2030" begin="0" end="212.0" number="84" route="route_flow1_duration_20250327_2030" departPos="random" arrivalPos="random" /><vTypeDistribution id="mixed_flow1_duration_20250327_2040"><vType id="car_flow1_duration_20250327_2040" accel="1.0" decel="4.5" sigma="0.5" length="5" maxSpeed="3.92" guiShape="passenger" probability="0.9" /><vType id="bus_flow1_duration_20250327_2040" accel="0.8" decel="4.0" sigma="0.5" length="12" maxSpeed="3.38" guiShape="bus" probability="0.09999999999999998" /></vTypeDistribution><route id="route_flow1_duration_20250327_2040" edges="137415945#0 137406408#0 133126040#0 1318893695#0 133131666#1" /><flow id="flow1_duration_20250327_2040" type="mixed_flow1_duration_20250327_2040" begin="0" end="211.0" number="84" route="route_flow1_duration_20250327_2040" departPos="random" arrivalPos="random" /><vTypeDistribution id="mixed_flow1_duration_20250327_2050"><vType id="car_flow1_duration_20250327_2050" accel="1.0" decel="4.5" sigma="0.5" length="5" maxSpeed="4.13" guiShape="passenger" probability="0.9" /><vType id="bus_flow1_duration_20250327_2050" accel="0.8" decel="4.0" sigma="0.5" length="12" maxSpeed="3.57" guiShape="bus" probability="0.09999999999999998" /></vTypeDistribution><route id="route_flow1_duration_20250327_2050" edges="137415945#0 137406408#0 133126040#0 1318893695#0 133131666#1" /><flow id="flow1_duration_20250327_2050" type="mixed_flow1_duration_20250327_2050" begin="0" end="200.0" number="80" route="route_flow1_duration_20250327_2050" departPos="random" arrivalPos="random" /><vTypeDistribution id="mixed_flow1_duration_20250327_2100"><vType id="car_flow1_duration_20250327_2100" accel="1.0" decel="4.5" sigma="0.5" length="5" maxSpeed="3.95" guiShape="passenger" probability="0.9" /><vType id="bus_flow1_duration_20250327_2100" accel="0.8" decel="4.0" sigma="0.5" length="12" maxSpeed="3.41" guiShape="bus" probability="0.09999999999999998" /></vTypeDistribution><route id="route_flow1_duration_20250327_2100" edges="137415945#0 137406408#0 133126040#0 1318893695#0 133131666#1" /><flow id="flow1_duration_20250327_2100" type="mixed_flow1_duration_20250327_2100" begin="0" end="209.0" number="83" route="route_flow1_duration_20250327_2100" departPos="random" arrivalPos="random" /><vTypeDistribution id="mixed_flow1_duration_20250327_2110"><vType id="car_flow1_duration_20250327_2110" accel="1.0" decel="4.5" sigma="0.5" length="5" maxSpeed="4.54" guiShape="passenger" probability="0.9" /><vType id="bus_flow1_duration_20250327_2110" accel="0.8" decel="4.0" sigma="0.5" length="12" maxSpeed="3.92" guiShape="bus" probability="0.09999999999999998" /></vTypeDistribution><route id="route_flow1_duration_20250327_2110" edges="137415945#0 137406408#0 133126040#0 1318893695#0 133131666#1" /><flow id="flow1_duration_20250327_2110" type="mixed_flow1_duration_20250327_2110" begin="0" end="182.0" number="72" route="route_flow1_duration_20250327_2110" departPos="random" arrivalPos="random" /><vTypeDistribution id="mixed_flow1_duration_20250327_2120"><vType id="car_flow1_duration_20250327_2120" accel="1.0" decel="4.5" sigma="0.5" length="5" maxSpeed="4.35" guiShape="passenger" probability="0.9" /><vType id="bus_flow1_duration_20250327_2120" accel="0.8" decel="4.0" sigma="0.5" length="12" maxSpeed="3.75" guiShape="bus" probability="0.09999999999999998" /></vTypeDistribution><route id="route_flow1_duration_20250327_2120" edges="137415945#0 137406408#0 133126040#0 1318893695#0 133131666#1" /><flow id="flow1_duration_20250327_2120" type="mixed_flow1_duration_20250327_2120" begin="0" end="190.0" number="76" route="route_flow1_duration_20250327_2120" departPos="random" arrivalPos="random" /><vTypeDistribution id="mixed_flow1_duration_20250327_2130"><vType id="car_flow1_duration_20250327_2130" accel="1.0" decel="4.5" sigma="0.5" length="5" maxSpeed="3.97" guiShape="passenger" probability="0.9" /><vType id="bus_flow1_duration_20250327_2130" accel="0.8" decel="4.0" sigma="0.5" length="12" maxSpeed="3.43" guiShape="bus" probability="0.09999999999999998" /></vTypeDistribution><route id="route_flow1_duration_20250327_2130" edges="137415945#0 137406408#0 133126040#0 1318893695#0 133131666#1" /><flow id="flow1_duration_20250327_2130" type="mixed_flow1_duration_20250327_2130" begin="0" end="208.0" number="83" route="route_flow1_duration_20250327_2130" departPos="random" arrivalPos="random" /><vTypeDistribution id="mixed_flow1_duration_20250327_2140"><vType id="car_flow1_duration_20250327_2140" accel="1.0" decel="4.5" sigma="0.5" length="5" maxSpeed="4.64" guiShape="passenger" probability="0.9" /><vType id="bus_flow1_duration_20250327_2140" accel="0.8" decel="4.0" sigma="0.5" length="12" maxSpeed="4.01" guiShape="bus" probability="0.09999999999999998" /></vTypeDistribution><route id="route_flow1_duration_20250327_2140" edges="137415945#0 137406408#0 133126040#0 1318893695#0 133131666#1" /><flow id="flow1_duration_20250327_2140" type="mixed_flow1_duration_20250327_2140" begin="0" end="178.0" number="71" route="route_flow1_duration_20250327_2140" departPos="random" arrivalPos="random" /><vTypeDistribution id="mixed_flow1_duration_20250327_2150"><vType id="car_flow1_duration_20250327_2150" accel="1.0" decel="4.5" sigma="0.5" length="5" maxSpeed="4.62" guiShape="passenger" probability="0.9" /><vType id="bus_flow1_duration_20250327_2150" accel="0.8" decel="4.0" sigma="0.5" length="12" maxSpeed="3.99" guiShape="bus" probability="0.09999999999999998" /></vTypeDistribution><route id="route_flow1_duration_20250327_2150" edges="137415945#0 137406408#0 133126040#0 1318893695#0 133131666#1" /><flow id="flow1_duration_20250327_2150" type="mixed_flow1_duration_20250327_2150" begin="0" end="179.0" number="71" route="route_flow1_duration_20250327_2150" departPos="random" arrivalPos="random" /><vTypeDistribution id="mixed_flow1_duration_20250327_2200"><vType id="car_flow1_duration_20250327_2200" accel="1.0" decel="4.5" sigma="0.5" length="5" maxSpeed="4.67" guiShape="passenger" probability="0.9" /><vType id="bus_flow1_duration_20250327_2200" accel="0.8" decel="4.0" sigma="0.5" length="12" maxSpeed="4.03" guiShape="bus" probability="0.09999999999999998" /></vTypeDistribution><route id="route_flow1_duration_20250327_2200" edges="137415945#0 137406408#0 133126040#0 1318893695#0 133131666#1" /><flow id="flow1_duration_20250327_2200" type="mixed_flow1_duration_20250327_2200" begin="0" end="177.0" number="70" route="route_flow1_duration_20250327_2200" departPos="random" arrivalPos="random" /><vTypeDistribution id="mixed_flow1_duration_20250327_2210"><vType id="car_flow1_duration_20250327_2210" accel="1.0" decel="4.5" sigma="0.5" length="5" maxSpeed="4.78" guiShape="passenger" probability="0.9" /><vType id="bus_flow1_duration_20250327_2210" accel="0.8" decel="4.0" sigma="0.5" length="12" maxSpeed="4.12" guiShape="bus" probability="0.09999999999999998" /></vTypeDistribution><route id="route_flow1_duration_20250327_2210" edges="137415945#0 137406408#0 133126040#0 1318893695#0 133131666#1" /><flow id="flow1_duration_20250327_2210" type="mixed_flow1_duration_20250327_2210" begin="0" end="173.0" number="69" route="route_flow1_duration_20250327_2210" departPos="random" arrivalPos="random" /><vTypeDistribution id="mixed_flow1_duration_20250327_2220"><vType id="car_flow1_duration_20250327_2220" accel="1.0" decel="4.5" sigma="0.5" length="5" maxSpeed="4.67" guiShape="passenger" probability="0.9" /><vType id="bus_flow1_duration_20250327_2220" accel="0.8" decel="4.0" sigma="0.5" length="12" maxSpeed="4.03" guiShape="bus" probability="0.09999999999999998" /></vTypeDistribution><route id="route_flow1_duration_20250327_2220" edges="137415945#0 137406408#0 133126040#0 1318893695#0 133131666#1" /><flow id="flow1_duration_20250327_2220" type="mixed_flow1_duration_20250327_2220" begin="0" end="177.0" number="70" route="route_flow1_duration_20250327_2220" departPos="random" arrivalPos="random" /><vTypeDistribution id="mixed_flow1_duration_20250327_2230"><vType id="car_flow1_duration_20250327_2230" accel="1.0" decel="4.5" sigma="0.5" length="5" maxSpeed="4.92" guiShape="passenger" probability="0.9" /><vType id="bus_flow1_duration_20250327_2230" accel="0.8" decel="4.0" sigma="0.5" length="12" maxSpeed="4.25" guiShape="bus" probability="0.09999999999999998" /></vTypeDistribution><route id="route_flow1_duration_20250327_2230" edges="137415945#0 137406408#0 133126040#0 1318893695#0 133131666#1" /><flow id="flow1_duration_20250327_2230" type="mixed_flow1_duration_20250327_2230" begin="0" end="168.0" number="67" route="route_flow1_duration_20250327_2230" departPos="random" arrivalPos="random" /><vTypeDistribution id="mixed_flow1_duration_20250327_2240"><vType id="car_flow1_duration_20250327_2240" accel="1.0" decel="4.5" sigma="0.5" length="5" maxSpeed="4.35" guiShape="passenger" probability="0.9" /><vType id="bus_flow1_duration_20250327_2240" accel="0.8" decel="4.0" sigma="0.5" length="12" maxSpeed="3.75" guiShape="bus" probability="0.09999999999999998" /></vTypeDistribution><route id="route_flow1_duration_20250327_2240" edges="137415945#0 137406408#0 133126040#0 1318893695#0 133131666#1" /><flow id="flow1_duration_20250327_2240" type="mixed_flow1_duration_20250327_2240" begin="0" end="190.0" number="76" route="route_flow1_duration_20250327_2240" departPos="random" arrivalPos="random" /><vTypeDistribution id="mixed_flow1_duration_20250327_2250"><vType id="car_flow1_duration_20250327_2250" accel="1.0" decel="4.5" sigma="0.5" length="5" maxSpeed="4.56" guiShape="passenger" probability="0.9" /><vType id="bus_flow1_duration_20250327_2250" accel="0.8" decel="4.0" sigma="0.5" length="12" maxSpeed="3.94" guiShape="bus" probability="0.09999999999999998" /></vTypeDistribution><route id="route_flow1_duration_20250327_2250" edges="137415945#0 137406408#0 133126040#0 1318893695#0 133131666#1" /><flow id="flow1_duration_20250327_2250" type="mixed_flow1_duration_20250327_2250" begin="0" end="181.0" number="72" route="route_flow1_duration_20250327_2250" departPos="random" arrivalPos="random" /><vTypeDistribution id="mixed_flow1_duration_20250327_2300"><vType id="car_flow1_duration_20250327_2300" accel="1.0" decel="4.5" sigma="0.5" length="5" maxSpeed="4.37" guiShape="passenger" probability="0.9" /><vType id="bus_flow1_duration_20250327_2300" accel="0.8" decel="4.0" sigma="0.5" length="12" maxSpeed="3.77" guiShape="bus" probability="0.09999999999999998" /></vTypeDistribution><route id="route_flow1_duration_20250327_2300" edges="137415945#0 137406408#0 133126040#0 1318893695#0 133131666#1" /><flow id="flow1_duration_20250327_2300" type="mixed_flow1_duration_20250327_2300" begin="0" end="189.0" number="75" route="route_flow1_duration_20250327_2300" departPos="random" arrivalPos="random" /><vTypeDistribution id="mixed_flow2_duration_20250327_1730"><vType id="car_flow2_duration_20250327_1730" accel="1.0" decel="4.5" sigma="0.5" length="5" maxSpeed="3.3" guiShape="passenger" probability="0.9" /><vType id="bus_flow2_duration_20250327_1730" accel="0.8" decel="4.0" sigma="0.5" length="12" maxSpeed="2.85" guiShape="bus" probability="0.09999999999999998" /></vTypeDistribution><route id="route_flow2_duration_20250327_1730" edges="137415945#0 137406408#0 1254771874#0 138002006#0 1369578052#0" /><flow id="flow2_duration_20250327_1730" type="mixed_flow2_duration_20250327_1730" begin="0" end="258.0" number="103" route="route_flow2_duration_20250327_1730" departPos="random" arrivalPos="random" /><vTypeDistribution id="mixed_flow2_duration_20250327_1740"><vType id="car_flow2_duration_20250327_1740" accel="1.0" decel="4.5" sigma="0.5" length="5" maxSpeed="2.86" guiShape="passenger" probability="0.9" /><vType id="bus_flow2_duration_20250327_1740" accel="0.8" decel="4.0" sigma="0.5" length="12" maxSpeed="2.47" guiShape="bus" probability="0.09999999999999998" /></vTypeDistribution><route id="route_flow2_duration_20250327_1740" edges="137415945#0 137406408#0 1254771874#0 138002006#0 1369578052#0" /><flow id="flow2_duration_20250327_1740" type="mixed_flow2_duration_20250327_1740" begin="0" end="298.0" number="119" route="route_flow2_duration_20250327_1740" departPos="random" arrivalPos="random" /><vTypeDistribution id="mixed_flow2_duration_20250327_1750"><vType id="car_flow2_duration_20250327_1750" accel="1.0" decel="4.5" sigma="0.5" length="5" maxSpeed="2.76" guiShape="passenger" probability="0.9" /><vType id="bus_flow2_duration_20250327_1750" accel="0.8" decel="4.0" sigma="0.5" length="12" maxSpeed="2.38" guiShape="bus" probability="0.09999999999999998" /></vTypeDistribution><route id="route_flow2_duration_20250327_1750" edges="137415945#0 137406408#0 1254771874#0 138002006#0 1369578052#0" /><flow id="flow2_duration_20250327_1750" type="mixed_flow2_duration_20250327_1750" begin="0" end="309.0" number="123" route="route_flow2_duration_20250327_1750" departPos="random" arrivalPos="random" /><vTypeDistribution id="mixed_flow2_duration_20250327_1800"><vType id="car_flow2_duration_20250327_1800" accel="1.0" decel="4.5" sigma="0.5" length="5" maxSpeed="3.0" guiShape="passenger" probability="0.9" /><vType id="bus_flow2_duration_20250327_1800" accel="0.8" decel="4.0" sigma="0.5" length="12" maxSpeed="2.59" guiShape="bus" probability="0.09999999999999998" /></vTypeDistribution><route id="route_flow2_duration_20250327_1800" edges="137415945#0 137406408#0 1254771874#0 138002006#0 1369578052#0" /><flow id="flow2_duration_20250327_1800" type="mixed_flow2_duration_20250327_1800" begin="0" end="284.0" number="113" route="route_flow2_duration_20250327_1800" departPos="random" arrivalPos="random" /><vTypeDistribution id="mixed_flow2_duration_20250327_1810"><vType id="car_flow2_duration_20250327_1810" accel="1.0" decel="4.5" sigma="0.5" length="5" maxSpeed="2.54" guiShape="passenger" probability="0.9" /><vType id="bus_flow2_duration_20250327_1810" accel="0.8" decel="4.0" sigma="0.5" length="12" maxSpeed="2.19" guiShape="bus" probability="0.09999999999999998" /></vTypeDistribution><route id="route_flow2_duration_20250327_1810" edges="137415945#0 137406408#0 1254771874#0 138002006#0 1369578052#0" /><flow id="flow2_duration_20250327_1810" type="mixed_flow2_duration_20250327_1810" begin="0" end="336.0" number="134" route="route_flow2_duration_20250327_1810" departPos="random" arrivalPos="random" /><vTypeDistribution id="mixed_flow2_duration_20250327_1820"><vType id="car_flow2_duration_20250327_1820" accel="1.0" decel="4.5" sigma="0.5" length="5" maxSpeed="2.53" guiShape="passenger" probability="0.9" /><vType id="bus_flow2_duration_20250327_1820" accel="0.8" decel="4.0" sigma="0.5" length="12" maxSpeed="2.18" guiShape="bus" probability="0.09999999999999998" /></vTypeDistribution><route id="route_flow2_duration_20250327_1820" edges="137415945#0 137406408#0 1254771874#0 138002006#0 1369578052#0" /><flow id="flow2_duration_20250327_1820" type="mixed_flow2_duration_20250327_1820" begin="0" end="337.0" number="134" route="route_flow2_duration_20250327_1820" departPos="random" arrivalPos="random" /><vTypeDistribution id="mixed_flow2_duration_20250327_1830"><vType id="car_flow2_duration_20250327_1830" accel="1.0" decel="4.5" sigma="0.5" length="5" maxSpeed="2.66" guiShape="passenger" probability="0.9" /><vType id="bus_flow2_duration_20250327_1830" accel="0.8" decel="4.0" sigma="0.5" length="12" maxSpeed="2.3" guiShape="bus" probability="0.09999999999999998" /></vTypeDistribution><route id="route_flow2_duration_20250327_1830" edges="137415945#0 137406408#0 1254771874#0 138002006#0 1369578052#0" /><flow id="flow2_duration_20250327_1830" type="mixed_flow2_duration_20250327_1830" begin="0" end="320.0" number="128" route="route_flow2_duration_20250327_1830" departPos="random" arrivalPos="random" /><vTypeDistribution id="mixed_flow2_duration_20250327_1840"><vType id="car_flow2_duration_20250327_1840" accel="1.0" decel="4.5" sigma="0.5" length="5" maxSpeed="2.94" guiShape="passenger" probability="0.9" /><vType id="bus_flow2_duration_20250327_1840" accel="0.8" decel="4.0" sigma="0.5" length="12" maxSpeed="2.54" guiShape="bus" probability="0.09999999999999998" /></vTypeDistribution><route id="route_flow2_duration_20250327_1840" edges="137415945#0 137406408#0 1254771874#0 138002006#0 1369578052#0" /><flow id="flow2_duration_20250327_1840" type="mixed_flow2_duration_20250327_1840" begin="0" end="290.0" number="116" route="route_flow2_duration_20250327_1840" departPos="random" arrivalPos="random" /><vTypeDistribution id="mixed_flow2_duration_20250327_1850"><vType id="car_flow2_duration_20250327_1850" accel="1.0" decel="4.5" sigma="0.5" length="5" maxSpeed="2.98" guiShape="passenger" probability="0.9" /><vType id="bus_flow2_duration_20250327_1850" accel="0.8" decel="4.0" sigma="0.5" l