<?xml version='1.0' encoding='UTF-8'?>
<routes>
  <vType id="car" accel="1.0" decel="4.5" length="5" maxSpeed="16.6" sigma="0.5"/>
  <route id="route_0" edges="1318793176#1 1318793176#1.11 133126031#0"/>
  <flow id="route_0" type="car" route="route_0" begin="60" end="120" number="30" departPos="random" arrivalPos="random"/>
  <route id="route_1" edges="1318793176#1 1318793176#1.11 1318793173#0"/>
  <flow id="route_1" type="car" route="route_1" begin="60" end="120" number="75" departPos="random" arrivalPos="random"/>
  <route id="route_2" edges="1318793173#0 133126013#0 189835257"/>
  <flow id="route_2" type="car" route="route_2" begin="60" end="120" number="297" departPos="random" arrivalPos="random"/>
  <route id="route_3" edges="1318793173#0 291974733#0"/>
  <flow id="route_3" type="car" route="route_3" begin="60" end="120" number="14" departPos="random" arrivalPos="random"/>
  <route id="route_4" edges="291974733#0 379698350#0"/>
  <flow id="route_4" type="car" route="route_4" begin="60" end="120" number="8" departPos="random" arrivalPos="random"/>
  <route id="route_5" edges="291974733#0 1342054204"/>
  <flow id="route_5" type="car" route="route_5" begin="60" end="120" number="240" departPos="random" arrivalPos="random"/>
  <route id="route_6" edges="1252820505#0 379698350#0"/>
  <flow id="route_6" type="car" route="route_6" begin="60" end="120" number="100" departPos="random" arrivalPos="random"/>
  <route id="route_7" edges="133000078#0 137406408#0"/>
  <flow id="route_7" type="car" route="route_7" begin="60" end="120" number="151" departPos="random" arrivalPos="random"/>
  <route id="route_8" edges="133000078#0 1235147073 1235147073.116"/>
  <flow id="route_8" type="car" route="route_8" begin="60" end="120" number="234" departPos="random" arrivalPos="random"/>
  <route id="route_9" edges="1318793173#0 1254771875#0 1254771874#0"/>
  <flow id="route_9" type="car" route="route_9" begin="60" end="120" number="7" departPos="random" arrivalPos="random"/>
  <route id="route_10" edges="1252820505#0 1235147073 1235147073.116"/>
  <flow id="route_10" type="car" route="route_10" begin="60" end="120" number="286" departPos="random" arrivalPos="random"/>
  <route id="route_11" edges="1252820505#0 137406408#0"/>
  <flow id="route_11" type="car" route="route_11" begin="60" end="120" number="3" departPos="random" arrivalPos="random"/>
  <route id="route_12" edges="133000078#0 1342054204"/>
  <flow id="route_12" type="car" route="route_12" begin="60" end="120" number="12" departPos="random" arrivalPos="random"/>
  <route id="route_13" edges="1252820503#0 291974733#0"/>
  <flow id="route_13" type="car" route="route_13" begin="60" end="120" number="271" departPos="random" arrivalPos="random"/>
  <route id="route_14" edges="1252820503#0 1254771875#0 1254771874#0"/>
  <flow id="route_14" type="car" route="route_14" begin="60" end="120" number="208" departPos="random" arrivalPos="random"/>
  <route id="route_15" edges="1252820503#0 133126040#0"/>
  <flow id="route_15" type="car" route="route_15" begin="60" end="120" number="16" departPos="random" arrivalPos="random"/>
  <route id="route_16" edges="137406408#0 133126040#0"/>
  <flow id="route_16" type="car" route="route_16" begin="60" end="120" number="37" departPos="random" arrivalPos="random"/>
  <route id="route_17" edges="137406408#0 1254771875#0 1254771874#0"/>
  <flow id="route_17" type="car" route="route_17" begin="60" end="120" number="185" departPos="random" arrivalPos="random"/>
  <route id="route_18" edges="133126040#0 1318893695#0"/>
  <flow id="route_18" type="car" route="route_18" begin="60" end="120" number="240" departPos="random" arrivalPos="random"/>
  <route id="route_19" edges="133126040#0 133126031#0"/>
  <flow id="route_19" type="car" route="route_19" begin="60" end="120" number="7" departPos="random" arrivalPos="random"/>
  <route id="route_20" edges="1318893695#0 1318893695#0-AddedOffRampEdge 1318893704 133131666#1"/>
  <flow id="route_20" type="car" route="route_20" begin="60" end="120" number="37" departPos="random" arrivalPos="random"/>
  <route id="route_21" edges="380585337#0 380585337#1 380585337#2 1318793176#0 1318793176#1-AddedOnRampEdge 1318793176#1"/>
  <flow id="route_21" type="car" route="route_21" begin="60" end="120" number="91" departPos="random" arrivalPos="random"/>
  <route id="route_22" edges="137415945#0 137415945#0.16 1342054204"/>
  <flow id="route_22" type="car" route="route_22" begin="60" end="120" number="176" departPos="random" arrivalPos="random"/>
  <route id="route_23" edges="137415945#0 137415945#0.16 379698350#0"/>
  <flow id="route_23" type="car" route="route_23" begin="60" end="120" number="16" departPos="random" arrivalPos="random"/>
  <route id="route_24" edges="137415945#0 137415945#0.16 137406408#0"/>
  <flow id="route_24" type="car" route="route_24" begin="60" end="120" number="84" departPos="random" arrivalPos="random"/>
  <route id="route_25" edges="1254771874#0 1341093415#0"/>
  <flow id="route_25" type="car" route="route_25" begin="60" end="120" number="230" departPos="random" arrivalPos="random"/>
  <route id="route_26" edges="1254771874#0 -422986370#2"/>
  <flow id="route_26" type="car" route="route_26" begin="60" end="120" number="20" departPos="random" arrivalPos="random"/>
  <route id="route_27" edges="1254771874#0 138002006#0"/>
  <flow id="route_27" type="car" route="route_27" begin="60" end="120" number="39" departPos="random" arrivalPos="random"/>
  <route id="route_28" edges="-422986370#2 -430406005#1"/>
  <flow id="route_28" type="car" route="route_28" begin="60" end="120" number="16" departPos="random" arrivalPos="random"/>
  <route id="route_29" edges="-422986370#2 485211287#0 137415945#0"/>
  <flow id="route_29" type="car" route="route_29" begin="60" end="120" number="4" departPos="random" arrivalPos="random"/>
  <route id="route_30" edges="1235147073.116 133126026#0 133126030#0"/>
  <flow id="route_30" type="car" route="route_30" begin="60" end="120" number="162" departPos="random" arrivalPos="random"/>
  <route id="route_31" edges="1235147073.116 133126026#0 -430406005#1"/>
  <flow id="route_31" type="car" route="route_31" begin="60" end="120" number="6" departPos="random" arrivalPos="random"/>
  <route id="route_32" edges="1235147073.116 133126026#0 1369578054"/>
  <flow id="route_32" type="car" route="route_32" begin="60" end="120" number="85" departPos="random" arrivalPos="random"/>
  <route id="route_33" edges="133126008#0 1369578054"/>
  <flow id="route_33" type="car" route="route_33" begin="60" end="120" number="212" departPos="random" arrivalPos="random"/>
  <route id="route_34" edges="133126008#0 133126030#0"/>
  <flow id="route_34" type="car" route="route_34" begin="60" end="120" number="145" departPos="random" arrivalPos="random"/>
  <route id="route_35" edges="485211947#0 1369578054"/>
  <flow id="route_35" type="car" route="route_35" begin="60" end="120" number="295" departPos="random" arrivalPos="random"/>
  <route id="route_36" edges="485211947#0 485211287#0 137415945#0"/>
  <flow id="route_36" type="car" route="route_36" begin="60" end="120" number="219" departPos="random" arrivalPos="random"/>
  <route id="route_37" edges="485211947#0 -430406005#1"/>
  <flow id="route_37" type="car" route="route_37" begin="60" end="120" number="7" departPos="random" arrivalPos="random"/>
  <route id="route_38" edges="133126030#0 134193294#0"/>
  <flow id="route_38" type="car" route="route_38" begin="60" end="120" number="144" departPos="random" arrivalPos="random"/>
  <route id="route_39" edges="133126030#0 1328664748#0"/>
  <flow id="route_39" type="car" route="route_39" begin="60" end="120" number="288" departPos="random" arrivalPos="random"/>
  <route id="route_40" edges="1369578054 1341093415#0"/>
  <flow id="route_40" type="car" route="route_40" begin="60" end="120" number="3" departPos="random" arrivalPos="random"/>
  <route id="route_41" edges="1369578054 138002006#0"/>
  <flow id="route_41" type="car" route="route_41" begin="60" end="120" number="3" departPos="random" arrivalPos="random"/>
  <route id="route_42" edges="1328664744#0 485211947#0 -430406005#1 133126008#0 133126030#0"/>
  <flow id="route_42" type="car" route="route_42" begin="60" end="120" number="16" departPos="random" arrivalPos="random"/>
  <route id="route_43" edges="1328664744#0 134193294#0"/>
  <flow id="route_43" type="car" route="route_43" begin="60" end="120" number="4" departPos="random" arrivalPos="random"/>
  <route id="route_44" edges="791826085 134193294#0"/>
  <flow id="route_44" type="car" route="route_44" begin="60" end="120" number="83" departPos="random" arrivalPos="random"/>
  <route id="route_45" edges="791826085 485211947#0"/>
  <flow id="route_45" type="car" route="route_45" begin="60" end="120" number="297" departPos="random" arrivalPos="random"/>
  <route id="route_46" edges="791826085 1328664748#0"/>
  <flow id="route_46" type="car" route="route_46" begin="60" end="120" number="11" departPos="random" arrivalPos="random"/>
  <route id="route_47" edges="380351865#0 380351865#0.21 1318793173#0"/>
  <flow id="route_47" type="car" route="route_47" begin="60" end="120" number="13" departPos="random" arrivalPos="random"/>
  <route id="route_48" edges="380351865#0 380351865#0.21 133126031#0"/>
  <flow id="route_48" type="car" route="route_48" begin="60" end="120" number="292" departPos="random" arrivalPos="random"/>
  <route id="route_49" edges="380351865#0 380351865#0.21 1318893695#0"/>
  <flow id="route_49" type="car" route="route_49" begin="60" end="120" number="15" departPos="random" arrivalPos="random"/>
  <route id="route_50" edges="-138002006#3 -422986370#2"/>
  <flow id="route_50" type="car" route="route_50" begin="60" end="120" number="142" departPos="random" arrivalPos="random"/>
  <route id="route_51" edges="-138002006#3 1341093415#0"/>
  <flow id="route_51" type="car" route="route_51" begin="60" end="120" number="12" departPos="random" arrivalPos="random"/>
  <route id="route_52" edges="138002006#0 1328467333 380351865#0"/>
  <flow id="route_52" type="car" route="route_52" begin="60" end="120" number="5" departPos="random" arrivalPos="random"/>
  <route id="route_53" edges="138002006#0 1369578052#0"/>
  <flow id="route_53" type="car" route="route_53" begin="60" end="120" number="154" departPos="random" arrivalPos="random"/>
  <route id="route_54" edges="1341093415#0 1341093416#0"/>
  <flow id="route_54" type="car" route="route_54" begin="60" end="120" number="194" departPos="random" arrivalPos="random"/>
  <route id="route_55" edges="1341093415#0 791826085"/>
  <flow id="route_55" type="car" route="route_55" begin="60" end="120" number="130" departPos="random" arrivalPos="random"/>
  <route id="route_56" edges="1341093415#0 409155823"/>
  <flow id="route_56" type="car" route="route_56" begin="60" end="120" number="5" departPos="random" arrivalPos="random"/>
  <route id="route_57" edges="186407685 1328467333 380351865#0"/>
  <flow id="route_57" type="car" route="route_57" begin="60" end="120" number="91" departPos="random" arrivalPos="random"/>
  <route id="route_58" edges="186407685 -138002006#3"/>
  <flow id="route_58" type="car" route="route_58" begin="60" end="120" number="28" departPos="random" arrivalPos="random"/>
  <route id="route_59" edges="186407685 1369578052#0"/>
  <flow id="route_59" type="car" route="route_59" begin="60" end="120" number="237" departPos="random" arrivalPos="random"/>
  <route id="route_60" edges="186407684#0 791826085"/>
  <flow id="route_60" type="car" route="route_60" begin="60" end="120" number="286" departPos="random" arrivalPos="random"/>
  <route id="route_61" edges="186407684#0 1341093416#0"/>
  <flow id="route_61" type="car" route="route_61" begin="60" end="120" number="230" departPos="random" arrivalPos="random"/>
  <route id="route_62" edges="409155823 1091883842"/>
  <flow id="route_62" type="car" route="route_62" begin="60" end="120" number="118" departPos="random" arrivalPos="random"/>
  <route id="route_63" edges="133131666#1 133131710#0 133342692#0"/>
  <flow id="route_63" type="car" route="route_63" begin="60" end="120" number="101" departPos="random" arrivalPos="random"/>
  <route id="route_64" edges="133131666#1 133131710#0 -138002002#2"/>
  <flow id="route_64" type="car" route="route_64" begin="60" end="120" number="273" departPos="random" arrivalPos="random"/>
  <route id="route_65" edges="133131666#1 133131710#0 138002016#0"/>
  <flow id="route_65" type="car" route="route_65" begin="60" end="120" number="79" departPos="random" arrivalPos="random"/>
  <route id="route_66" edges="-138002002#2 -138002006#3"/>
  <flow id="route_66" type="car" route="route_66" begin="60" end="120" number="67" departPos="random" arrivalPos="random"/>
  <route id="route_67" edges="-138002002#2 1328467333 380351865#0"/>
  <flow id="route_67" type="car" route="route_67" begin="60" end="120" number="279" departPos="random" arrivalPos="random"/>
  <route id="route_68" edges="1253209803#0 -138002002#2"/>
  <flow id="route_68" type="car" route="route_68" begin="60" end="120" number="16" departPos="random" arrivalPos="random"/>
  <route id="route_69" edges="1253209803#0 689013160#1 380585337#0"/>
  <flow id="route_69" type="car" route="route_69" begin="60" end="120" number="253" departPos="random" arrivalPos="random"/>
  <route id="route_70" edges="1253209803#0 133342692#0"/>
  <flow id="route_70" type="car" route="route_70" begin="60" end="120" number="6" departPos="random" arrivalPos="random"/>
  <route id="route_71" edges="1369578052#0 138002016#0"/>
  <flow id="route_71" type="car" route="route_71" begin="60" end="120" number="9" departPos="random" arrivalPos="random"/>
  <route id="route_72" edges="1369578052#0 133342692#0"/>
  <flow id="route_72" type="car" route="route_72" begin="60" end="120" number="5" departPos="random" arrivalPos="random"/>
  <route id="route_73" edges="380593307#0 689013160#1 380585337#0"/>
  <flow id="route_73" type="car" route="route_73" begin="60" end="120" number="295" departPos="random" arrivalPos="random"/>
  <route id="route_74" edges="380593307#0 138002016#0"/>
  <flow id="route_74" type="car" route="route_74" begin="60" end="120" number="39" departPos="random" arrivalPos="random"/>
  <route id="route_75" edges="380593307#0 -138002002#2"/>
  <flow id="route_75" type="car" route="route_75" begin="60" end="120" number="58" departPos="random" arrivalPos="random"/>
  <route id="route_76" edges="133342692#0 133000063"/>
  <flow id="route_76" type="car" route="route_76" begin="60" end="120" number="156" departPos="random" arrivalPos="random"/>
  <route id="route_77" edges="133342692#0 423956929"/>
  <flow id="route_77" type="car" route="route_77" begin="60" end="120" number="165" departPos="random" arrivalPos="random"/>
  <route id="route_78" edges="133342692#0 136617981"/>
  <flow id="route_78" type="car" route="route_78" begin="60" end="120" number="13" departPos="random" arrivalPos="random"/>
  <route id="route_79" edges="380344611#0 423956929"/>
  <flow id="route_79" type="car" route="route_79" begin="60" end="120" number="198" departPos="random" arrivalPos="random"/>
  <route id="route_80" edges="380344611#0 380593307#0"/>
  <flow id="route_80" type="car" route="route_80" begin="60" end="120" number="195" departPos="random" arrivalPos="random"/>
  <route id="route_81" edges="380344611#0 133000063"/>
  <flow id="route_81" type="car" route="route_81" begin="60" end="120" number="3" departPos="random" arrivalPos="random"/>
  <route id="route_82" edges="423956929 186407684#0"/>
  <flow id="route_82" type="car" route="route_82" begin="60" end="120" number="284" departPos="random" arrivalPos="random"/>
  <route id="route_83" edges="423956929 186407685"/>
  <flow id="route_83" type="car" route="route_83" begin="60" end="120" number="186" departPos="random" arrivalPos="random"/>
  <route id="route_84" edges="1091883842 136617981"/>
  <flow id="route_84" type="car" route="route_84" begin="60" end="120" number="84" departPos="random" arrivalPos="random"/>
  <route id="route_85" edges="1091883842 133000063"/>
  <flow id="route_85" type="car" route="route_85" begin="60" end="120" number="294" departPos="random" arrivalPos="random"/>
  <route id="route_86" edges="430416184 186407685"/>
  <flow id="route_86" type="car" route="route_86" begin="60" end="120" number="4" departPos="random" arrivalPos="random"/>
  <route id="route_87" edges="430416184 1091883842"/>
  <flow id="route_87" type="car" route="route_87" begin="60" end="120" number="238" departPos="random" arrivalPos="random"/>
  <route id="route_88" edges="430416184 186407684#0"/>
  <flow id="route_88" type="car" route="route_88" begin="60" end="120" number="8" departPos="random" arrivalPos="random"/>
  <route id="route_89" edges="380585338#0 380593307#0"/>
  <flow id="route_89" type="car" route="route_89" begin="60" end="120" number="149" departPos="random" arrivalPos="random"/>
  <route id="route_90" edges="380585338#0 136617981"/>
  <flow id="route_90" type="car" route="route_90" begin="60" end="120" number="105" departPos="random" arrivalPos="random"/>
  <route id="route_91" edges="133000063 133000074#0 536904421 380585331#0 380585331#1 380585331#1-AddedOffRampEdge 413998000#0 413998000#1 380585329 683079387#0 683079387#1"/>
  <flow id="route_91" type="car" route="route_91" begin="60" end="120" number="31" departPos="random" arrivalPos="random"/>
  <route id="route_92" edges="133000063 133000074#0 424419114 466039992 186409193"/>
  <flow id="route_92" type="car" route="route_92" begin="60" end="120" number="294" departPos="random" arrivalPos="random"/>
  <route id="route_93" edges="133000063 133000074#0 536904421 380585331#0 380585331#1 380585331#1-AddedOffRampEdge 119476970 138000455 439280452 439288139 380585336"/>
  <flow id="route_93" type="car" route="route_93" begin="60" end="120" number="40" departPos="random" arrivalPos="random"/>
  <route id="route_94" edges="1341093416#0 799091563#0"/>
  <flow id="route_94" type="car" route="route_94" begin="60" end="120" number="143" departPos="random" arrivalPos="random"/>
  <route id="route_95" edges="1341093416#0 1254519225#0 1254519225#0.109"/>
  <flow id="route_95" type="car" route="route_95" begin="60" end="120" number="289" departPos="random" arrivalPos="random"/>
  <route id="route_96" edges="1341093416#0 1254519229#0"/>
  <flow id="route_96" type="car" route="route_96" begin="60" end="120" number="1" departPos="random" arrivalPos="random"/>
  <route id="route_97" edges="1328664748#0 135474719#0"/>
  <flow id="route_97" type="car" route="route_97" begin="60" end="120" number="263" departPos="random" arrivalPos="random"/>
  <route id="route_98" edges="1328664748#0 177211987#1"/>
  <flow id="route_98" type="car" route="route_98" begin="60" end="120" number="239" departPos="random" arrivalPos="random"/>
  <route id="route_99" edges="1328664748#0 1253188486#8"/>
  <flow id="route_99" type="car" route="route_99" begin="60" end="120" number="115" departPos="random" arrivalPos="random"/>
  <route id="route_100" edges="186409193 186409193.57 189240001 1254519229#0"/>
  <flow id="route_100" type="car" route="route_100" begin="60" end="120" number="6" departPos="random" arrivalPos="random"/>
  <route id="route_101" edges="186409193 186409193.57 430416184"/>
  <flow id="route_101" type="car" route="route_101" begin="60" end="120" number="287" departPos="random" arrivalPos="random"/>
  <route id="route_102" edges="1342963997 424419115 380585331#0 380585331#1 380585331#1-AddedOffRampEdge 119476970 138000455 439280452 439288139 380585336"/>
  <flow id="route_102" type="car" route="route_102" begin="60" end="120" number="6" departPos="random" arrivalPos="random"/>
  <route id="route_103" edges="1342963997 424419115 380585331#0 380585331#1 380585331#1-AddedOffRampEdge 413998000#0 413998000#1 380585329 683079387#0 683079387#1"/>
  <flow id="route_103" type="car" route="route_103" begin="60" end="120" number="2" departPos="random" arrivalPos="random"/>
  <route id="route_104" edges="189240001 1254519225#0 1254519225#0.109"/>
  <flow id="route_104" type="car" route="route_104" begin="60" end="120" number="148" departPos="random" arrivalPos="random"/>
  <route id="route_105" edges="189240001 799091563#0"/>
  <flow id="route_105" type="car" route="route_105" begin="60" end="120" number="7" departPos="random" arrivalPos="random"/>
  <route id="route_106" edges="1254519229#0 430416184"/>
  <flow id="route_106" type="car" route="route_106" begin="60" end="120" number="18" departPos="random" arrivalPos="random"/>
  <route id="route_107" edges="1254519229#0 1342963997"/>
  <flow id="route_107" type="car" route="route_107" begin="60" end="120" number="185" departPos="random" arrivalPos="random"/>
  <route id="route_108" edges="1254519225#0.109 799116519 135474719#0"/>
  <flow id="route_108" type="car" route="route_108" begin="60" end="120" number="3" departPos="random" arrivalPos="random"/>
  <route id="route_109" edges="1254519225#0.109 799116519 1328664744#0"/>
  <flow id="route_109" type="car" route="route_109" begin="60" end="120" number="48" departPos="random" arrivalPos="random"/>
  <route id="route_110" edges="1254519225#0.109 799116519 177211987#1"/>
  <flow id="route_110" type="car" route="route_110" begin="60" end="120" number="9" departPos="random" arrivalPos="random"/>
  <route id="route_111" edges="1253188486#8 1254519229#0"/>
  <flow id="route_111" type="car" route="route_111" begin="60" end="120" number="6" departPos="random" arrivalPos="random"/>
  <route id="route_112" edges="1253188486#8 799091563#0"/>
  <flow id="route_112" type="car" route="route_112" begin="60" end="120" number="216" departPos="random" arrivalPos="random"/>
  <route id="route_113" edges="1253188486#4 1253188486#8"/>
  <flow id="route_113" type="car" route="route_113" begin="60" end="120" number="239" departPos="random" arrivalPos="random"/>
  <route id="route_114" edges="1253188486#4 177211987#1"/>
  <flow id="route_114" type="car" route="route_114" begin="60" end="120" number="233" departPos="random" arrivalPos="random"/>
  <route id="route_115" edges="1253188486#4 1328664744#0"/>
  <flow id="route_115" type="car" route="route_115" begin="60" end="120" number="55" departPos="random" arrivalPos="random"/>
  <route id="route_116" edges="177211987#1 699152676#0 688883939#0"/>
  <flow id="route_116" type="car" route="route_116" begin="60" end="120" number="18" departPos="random" arrivalPos="random"/>
  <route id="route_117" edges="177211987#1 699152676#0 56196502#0 56196502#1-AddedOnRampEdge 56196502#1 488801107#0 488801107#1 138000492#0"/>
  <flow id="route_117" type="car" route="route_117" begin="60" end="120" number="6" departPos="random" arrivalPos="random"/>
  <route id="route_118" edges="134194079#0 1328664744#0"/>
  <flow id="route_118" type="car" route="route_118" begin="60" end="120" number="21" departPos="random" arrivalPos="random"/>
  <route id="route_119" edges="134194079#0 1253188486#8"/>
  <flow id="route_119" type="car" route="route_119" begin="60" end="120" number="41" departPos="random" arrivalPos="random"/>
  <route id="route_120" edges="799091563#0 56196502#0 56196502#1-AddedOnRampEdge 56196502#1 488801107#0 488801107#1 138000492#0"/>
  <flow id="route_120" type="car" route="route_120" begin="60" end="120" number="6" departPos="random" arrivalPos="random"/>
  <route id="route_121" edges="799091563#0 134194079#0"/>
  <flow id="route_121" type="car" route="route_121" begin="60" end="120" number="152" departPos="random" arrivalPos="random"/>
  <route id="route_122" edges="799091563#0 688883939#0"/>
  <flow id="route_122" type="car" route="route_122" begin="60" end="120" number="1" departPos="random" arrivalPos="random"/>
  <route id="route_123" edges="189240000#0-AddedOnRampEdge 189240000#0 1254519229#0"/>
  <flow id="route_123" type="car" route="route_123" begin="60" end="120" number="272" departPos="random" arrivalPos="random"/>
  <route id="route_124" edges="189240000#0-AddedOnRampEdge 189240000#0 1254519225#0 1254519225#0.109"/>
  <flow id="route_124" type="car" route="route_124" begin="60" end="120" number="4" departPos="random" arrivalPos="random"/>
  <route id="route_125" edges="138000461 138000441 138000455 439280452 439288139 380585336"/>
  <flow id="route_125" type="car" route="route_125" begin="60" end="120" number="61" departPos="random" arrivalPos="random"/>
  <route id="route_126" edges="-138000461 -138000479 49734478 139783053 138000492#0"/>
  <flow id="route_126" type="car" route="route_126" begin="60" end="120" number="5" departPos="random" arrivalPos="random"/>
  <route id="route_127" edges="-138000461 50899257 189240000#0-AddedOnRampEdge"/>
  <flow id="route_127" type="car" route="route_127" begin="60" end="120" number="167" departPos="random" arrivalPos="random"/>
  <route id="route_128" edges="134133272 380585334 380585332 380585338#0"/>
  <flow id="route_128" type="car" route="route_128" begin="60" end="120" number="4" departPos="random" arrivalPos="random"/>
  <route id="route_129" edges="134133272 380585334 380585332 133000074#0 536904421 380585331#0 380585331#1 380585331#1-AddedOffRampEdge 413998000#0 413998000#1 380585329 683079387#0 683079387#1"/>
  <flow id="route_129" type="car" route="route_129" begin="60" end="120" number="7" departPos="random" arrivalPos="random"/>
  <route id="route_130" edges="134133272 138000500 -223822294 -138000441 -138000461"/>
  <flow id="route_130" type="car" route="route_130" begin="60" end="120" number="237" departPos="random" arrivalPos="random"/>
  <route id="route_131" edges="714011134#0 134194079#0"/>
  <flow id="route_131" type="car" route="route_131" begin="60" end="120" number="274" departPos="random" arrivalPos="random"/>
  <route id="route_132" edges="714011134#0 799091561 189240000#0-AddedOnRampEdge"/>
  <flow id="route_132" type="car" route="route_132" begin="60" end="120" number="284" departPos="random" arrivalPos="random"/>
  <route id="route_133" edges="714011134#0 56196502#0 56196502#1-AddedOnRampEdge 56196502#1 488801107#0 488801107#1 138000492#0"/>
  <flow id="route_133" type="car" route="route_133" begin="60" end="120" number="40" departPos="random" arrivalPos="random"/>
  <route id="route_134" edges="688883939#0 809719540#0"/>
  <flow id="route_134" type="car" route="route_134" begin="60" end="120" number="142" departPos="random" arrivalPos="random"/>
  <route id="route_135" edges="688883939#0 1254157399#1"/>
  <flow id="route_135" type="car" route="route_135" begin="60" end="120" number="245" departPos="random" arrivalPos="random"/>
  <route id="route_136" edges="688883939#0 1310781105#0 186410975#0"/>
  <flow id="route_136" type="car" route="route_136" begin="60" end="120" number="3" departPos="random" arrivalPos="random"/>
  <route id="route_137" edges="1310781056 1310781055#0 714011134#0"/>
  <flow id="route_137" type="car" route="route_137" begin="60" end="120" number="7" departPos="random" arrivalPos="random"/>
  <route id="route_138" edges="1310781056 1310781055#0 1310781105#0 186410975#0"/>
  <flow id="route_138" type="car" route="route_138" begin="60" end="120" number="208" departPos="random" arrivalPos="random"/>
  <route id="route_139" edges="1310781056 1310781055#0 1254157399#1"/>
  <flow id="route_139" type="car" route="route_139" begin="60" end="120" number="11" departPos="random" arrivalPos="random"/>
  <route id="route_140" edges="809719540#0 -809772643#1"/>
  <flow id="route_140" type="car" route="route_140" begin="60" end="120" number="141" departPos="random" arrivalPos="random"/>
  <route id="route_141" edges="809719540#0 809937918#0 683079388#0 683079387#1"/>
  <flow id="route_141" type="car" route="route_141" begin="60" end="120" number="2" departPos="random" arrivalPos="random"/>
  <route id="route_142" edges="1253222187#0 809937918#0 683079388#0"/>
  <flow id="route_142" type="car" route="route_142" begin="60" end="120" number="143" departPos="random" arrivalPos="random"/>
  <route id="route_143" edges="1253222187#0 1310781056-AddedOnRampEdge 1310781056"/>
  <flow id="route_143" type="car" route="route_143" begin="60" end="120" number="2" departPos="random" arrivalPos="random"/>
  <route id="route_144" edges="683079388#0 683079388#1 683079389 119476960 413997998 380585339#0 380585338#0"/>
  <flow id="route_144" type="car" route="route_144" begin="60" end="120" number="283" departPos="random" arrivalPos="random"/>
  <route id="route_145" edges="683079388#0 683079388#1 683079389 119476960 119476978#0 119476978#1 380585336"/>
  <flow id="route_145" type="car" route="route_145" begin="60" end="120" number="231" departPos="random" arrivalPos="random"/>
  <route id="route_146" edges="683079387#1 683079387#1.14 -809772643#1"/>
  <flow id="route_146" type="car" route="route_146" begin="60" end="120" number="100" departPos="random" arrivalPos="random"/>
  <route id="route_147" edges="683079387#1 683079387#1.14 1310781056-AddedOnRampEdge 1310781056"/>
  <flow id="route_147" type="car" route="route_147" begin="60" end="120" number="15" departPos="random" arrivalPos="random"/>
  <route id="route_148" edges="186410975#0 186409203 186409203-AddedOffRampEdge 186407691 138000441 138000455 439280452 439288139 380585336"/>
  <flow id="route_148" type="car" route="route_148" begin="60" end="120" number="17" departPos="random" arrivalPos="random"/>
  <route id="route_149" edges="186410975#0 186410975#1 -33130262 58642921#0 58642921#1 430416184"/>
  <flow id="route_149" type="car" route="route_149" begin="60" end="120" number="8" departPos="random" arrivalPos="random"/>
  <route id="route_150" edges="186410975#0 186409203 186409203-AddedOffRampEdge 186407690 413998000#1 380585329 683079387#0 683079387#1"/>
  <flow id="route_150" type="car" route="route_150" begin="60" end="120" number="105" departPos="random" arrivalPos="random"/>
  <route id="route_151" edges="31861355#0 1310781105#0 186410975#0"/>