<?xml version='1.0' encoding='UTF-8'?>
<routes>
  <vType id="car" accel="1.0" decel="4.5" length="5" maxSpeed="16.6" sigma="0.5"/>
  <route id="route_28_duration_20250327_2300" edges="-422986370#2 -430406005#1"/>
  <flow id="flow_route_28_duration_20250327_2300" type="car" route="route_28_duration_20250327_2300" begin="0" end="60" number="1" departPos="random" arrivalPos="random"/>
  <route id="route_29_duration_20250327_2300" edges="-422986370#2 485211287#0 137415945#0"/>
  <flow id="flow_route_29_duration_20250327_2300" type="car" route="route_29_duration_20250327_2300" begin="0" end="60" number="1" departPos="random" arrivalPos="random"/>
  <route id="route_30_duration_20250327_2300" edges="1235147073.116 133126026#0 133126030#0"/>
  <flow id="flow_route_30_duration_20250327_2300" type="car" route="route_30_duration_20250327_2300" begin="0" end="60" number="2" departPos="random" arrivalPos="random"/>
  <route id="route_31_duration_20250327_2300" edges="1235147073.116 133126026#0 -430406005#1"/>
  <flow id="flow_route_31_duration_20250327_2300" type="car" route="route_31_duration_20250327_2300" begin="0" end="60" number="2" departPos="random" arrivalPos="random"/>
  <route id="route_32_duration_20250327_2300" edges="1235147073.116 133126026#0 1369578054"/>
  <flow id="flow_route_32_duration_20250327_2300" type="car" route="route_32_duration_20250327_2300" begin="0" end="60" number="5" departPos="random" arrivalPos="random"/>
  <route id="route_33_duration_20250327_2300" edges="133126008#0 1369578054"/>
  <flow id="flow_route_33_duration_20250327_2300" type="car" route="route_33_duration_20250327_2300" begin="0" end="60" number="3" departPos="random" arrivalPos="random"/>
  <route id="route_34_duration_20250327_2300" edges="133126008#0 133126030#0"/>
  <flow id="flow_route_34_duration_20250327_2300" type="car" route="route_34_duration_20250327_2300" begin="0" end="60" number="3" departPos="random" arrivalPos="random"/>
  <route id="route_35_duration_20250327_2300" edges="485211947#0 1369578054"/>
  <flow id="flow_route_35_duration_20250327_2300" type="car" route="route_35_duration_20250327_2300" begin="0" end="60" number="4" departPos="random" arrivalPos="random"/>
  <route id="route_36_duration_20250327_2300" edges="485211947#0 485211287#0 137415945#0"/>
  <flow id="flow_route_36_duration_20250327_2300" type="car" route="route_36_duration_20250327_2300" begin="0" end="60" number="4" departPos="random" arrivalPos="random"/>
  <route id="route_37_duration_20250327_2300" edges="485211947#0 -430406005#1"/>
  <flow id="flow_route_37_duration_20250327_2300" type="car" route="route_37_duration_20250327_2300" begin="0" end="60" number="3" departPos="random" arrivalPos="random"/>
</routes>
