<?xml version='1.0' encoding='UTF-8'?>
<routes>
  <vType id="car" accel="1.0" decel="4.5" length="5" maxSpeed="16.6" sigma="0.5"/>
  <route id="route_100_duration_20250327_1930" edges="186409193 186409193.57 189240001 1254519229#0"/>
  <flow id="flow_route_100_duration_20250327_1930" type="car" route="route_100_duration_20250327_1930" begin="0" end="60" number="9" departPos="random" arrivalPos="random"/>
  <route id="route_101_duration_20250327_1930" edges="186409193 186409193.57 430416184"/>
  <flow id="flow_route_101_duration_20250327_1930" type="car" route="route_101_duration_20250327_1930" begin="0" end="60" number="30" departPos="random" arrivalPos="random"/>
  <route id="route_106_duration_20250327_1930" edges="1254519229#0 430416184"/>
  <flow id="flow_route_106_duration_20250327_1930" type="car" route="route_106_duration_20250327_1930" begin="0" end="60" number="25" departPos="random" arrivalPos="random"/>
  <route id="route_107_duration_20250327_1930" edges="1254519229#0 1342963997"/>
  <flow id="flow_route_107_duration_20250327_1930" type="car" route="route_107_duration_20250327_1930" begin="0" end="60" number="30" departPos="random" arrivalPos="random"/>
  <route id="route_149_duration_20250327_1930" edges="186410975#0 186410975#1 -33130262 58642921#0 58642921#1 430416184"/>
  <flow id="flow_route_149_duration_20250327_1930" type="car" route="route_149_duration_20250327_1930" begin="0" end="60" number="13" departPos="random" arrivalPos="random"/>
</routes>
