<?xml version="1.0" encoding="UTF-8"?>

<!-- generated on 2025-04-05 20:31:14 by Eclipse SUMO netconvert Version 1.20.0
<configuration xmlns:xsi="http://www.w3.org/2001/XMLSchema-instance" xsi:noNamespaceSchemaLocation="http://sumo.dlr.de/xsd/netconvertConfiguration.xsd">

    <input>
        <node-files value="combined_nodes.xml"/>
        <edge-files value="combined_edges.xml"/>
    </input>

    <output>
        <output-file value="network_complete.net.xml"/>
    </output>

</configuration>
-->

<net version="1.20" junctionCornerDetail="5" limitTurnSpeed="5.50" xmlns:xsi="http://www.w3.org/2001/XMLSchema-instance" xsi:noNamespaceSchemaLocation="http://sumo.dlr.de/xsd/net_file.xsd">

    <location netOffset="-458634.22,-4446952.79" convBoundary="0.00,0.00,1165.51,2101.30" origBoundary="458634.22,4446952.79,459799.72,4449054.09" projParameter="!"/>

    <edge id="abovyan_1-_to_abovyan_2-_to_abovyan_1-" from="abovyan_1-" to="abovyan_2-_to_abovyan_1-" priority="1">
        <lane id="abovyan_1-_to_abovyan_2-_to_abovyan_1-_0" index="0" speed="13.89" length="299.52" shape="986.39,1928.09 777.54,1713.40"/>
    </edge>
    <edge id="abovyan_1-_to_koryun_1_to_abovyan_1-" from="abovyan_1-" to="koryun_1_to_abovyan_1-" priority="1">
        <lane id="abovyan_1-_to_koryun_1_to_abovyan_1-_0" index="0" speed="13.89" length="178.85" shape="986.91,1927.59 863.30,1798.33"/>
    </edge>
    <edge id="abovyan_1-_to_koryun_2-_to_abovyan_1-" from="abovyan_1-" to="koryun_2-_to_abovyan_1-" priority="1">
        <lane id="abovyan_1-_to_koryun_2-_to_abovyan_1-_0" index="0" speed="13.89" length="192.25" shape="984.10,1930.41 844.85,1797.85"/>
    </edge>
    <edge id="abovyan_1_to_abovyan_1_to_abovyan_2" from="abovyan_1" to="abovyan_1_to_abovyan_2" priority="1">
        <lane id="abovyan_1_to_abovyan_1_to_abovyan_2_0" index="0" speed="13.89" length="1.97" shape="1027.36,2000.78 1028.81,1999.46"/>
    </edge>
    <edge id="abovyan_1_to_abovyan_1_to_koryun_1-" from="abovyan_1" to="abovyan_1_to_koryun_1-" priority="1">
        <lane id="abovyan_1_to_abovyan_1_to_koryun_1-_0" index="0" speed="13.89" length="255.82" shape="1022.98,2000.54 853.90,1808.57"/>
    </edge>
    <edge id="abovyan_1_to_abovyan_1_to_koryun_2" from="abovyan_1" to="abovyan_1_to_koryun_2" priority="1">
        <lane id="abovyan_1_to_abovyan_1_to_koryun_2_0" index="0" speed="13.89" length="258.93" shape="1022.98,2000.54 851.84,1806.23"/>
    </edge>
    <edge id="abovyan_2-_to_abovyan_2-_to_abovyan_1-" from="abovyan_2-" to="abovyan_2-_to_abovyan_1-" priority="1">
        <lane id="abovyan_2-_to_abovyan_2-_to_abovyan_1-_0" index="0" speed="13.89" length="0.20" shape="777.45,1709.19 777.30,1709.32"/>
    </edge>
    <edge id="abovyan_2-_to_abovyan_2-_to_koryun_1-" from="abovyan_2-" to="abovyan_2-_to_koryun_1-" priority="1">
        <lane id="abovyan_2-_to_abovyan_2-_to_koryun_1-_0" index="0" speed="13.89" length="94.50" shape="783.59,1707.81 841.96,1782.12"/>
    </edge>
    <edge id="abovyan_2-_to_abovyan_3-_to_abovyan_2-" from="abovyan_2-" to="abovyan_3-_to_abovyan_2-" priority="1">
        <lane id="abovyan_2-_to_abovyan_3-_to_abovyan_2-_0" index="0" speed="13.89" length="139.83" shape="777.15,1705.07 678.70,1605.77"/>
    </edge>
    <edge id="abovyan_2-_to_isahakyan_1_to_abovyan_2-" from="abovyan_2-" to="isahakyan_1_to_abovyan_2-" priority="1">
        <lane id="abovyan_2-_to_isahakyan_1_to_abovyan_2-_0" index="0" speed="13.89" length="87.91" shape="777.11,1705.11 713.24,1644.71"/>
    </edge>
    <edge id="abovyan_2_to_abovyan_1_to_abovyan_2" from="abovyan_2" to="abovyan_1_to_abovyan_2" priority="1">
        <lane id="abovyan_2_to_abovyan_1_to_abovyan_2_0" index="0" speed="13.89" length="381.25" shape="774.57,1711.17 1029.03,1995.08"/>
    </edge>
    <edge id="abovyan_2_to_abovyan_2_to_abovyan_3" from="abovyan_2" to="abovyan_2_to_abovyan_3" priority="1">
        <lane id="abovyan_2_to_abovyan_2_to_abovyan_3_0" index="0" speed="13.89" length="0.20" shape="773.78,1707.76 773.93,1707.62"/>
    </edge>
    <edge id="abovyan_2_to_abovyan_2_to_isahakyan_2" from="abovyan_2" to="abovyan_2_to_isahakyan_2" priority="1">
        <lane id="abovyan_2_to_abovyan_2_to_isahakyan_2_0" index="0" speed="13.89" length="87.50" shape="768.18,1708.73 710.82,1642.65"/>
    </edge>
    <edge id="abovyan_2_to_koryun_2-_to_abovyan_2" from="abovyan_2" to="koryun_2-_to_abovyan_2" priority="1">
        <lane id="abovyan_2_to_koryun_2-_to_abovyan_2_0" index="0" speed="13.89" length="105.49" shape="774.55,1711.19 843.23,1791.25"/>
    </edge>
    <edge id="abovyan_3-_to_abovyan_3-_to_abovyan_2-" from="abovyan_3-" to="abovyan_3-_to_abovyan_2-" priority="1">
        <lane id="abovyan_3-_to_abovyan_3-_to_abovyan_2-_0" index="0" speed="13.89" length="0.20" shape="677.88,1602.25 677.73,1602.38"/>
    </edge>
    <edge id="abovyan_3-_to_moskovyan_3_to_abovyan_3-" from="abovyan_3-" to="moskovyan_3_to_abovyan_3-" priority="1">
        <lane id="abovyan_3-_to_moskovyan_3_to_abovyan_3-_0" index="0" speed="13.89" length="52.82" shape="676.90,1598.86 639.73,1561.33"/>
    </edge>
    <edge id="abovyan_3_to_abovyan_2_to_abovyan_3" from="abovyan_3" to="abovyan_2_to_abovyan_3" priority="1">
        <lane id="abovyan_3_to_abovyan_2_to_abovyan_3_0" index="0" speed="13.89" length="134.30" shape="678.91,1608.36 773.01,1704.18"/>
    </edge>
    <edge id="abovyan_3_to_abovyan_3_to_abovyan_4" from="abovyan_3" to="abovyan_3_to_abovyan_4" priority="1">
        <lane id="abovyan_3_to_abovyan_3_to_abovyan_4_0" index="0" speed="13.89" length="0.20" shape="676.26,1602.40 676.41,1602.27"/>
    </edge>
    <edge id="abovyan_3_to_abovyan_3_to_moskovyan_4" from="abovyan_3" to="abovyan_3_to_moskovyan_4" priority="1">
        <lane id="abovyan_3_to_abovyan_3_to_moskovyan_4_0" index="0" speed="13.89" length="48.72" shape="670.35,1603.25 641.44,1564.03"/>
    </edge>
    <edge id="abovyan_3_to_isahakyan_1_to_abovyan_3" from="abovyan_3" to="isahakyan_1_to_abovyan_3" priority="1">
        <lane id="abovyan_3_to_isahakyan_1_to_abovyan_3_0" index="0" speed="13.89" length="180.36" shape="673.00,1611.03 571.35,1760.01"/>
    </edge>
    <edge id="abovyan_4_to_abovyan_3_to_abovyan_4" from="abovyan_4" to="abovyan_3_to_abovyan_4" priority="1">
        <lane id="abovyan_4_to_abovyan_3_to_abovyan_4_0" index="0" speed="13.89" length="221.84" shape="527.64,1433.55 676.05,1598.44"/>
    </edge>
    <edge id="abovyan_4_to_abovyan_4_to_abovyan_5" from="abovyan_4" to="abovyan_4_to_abovyan_5" priority="1">
        <lane id="abovyan_4_to_abovyan_4_to_abovyan_5_0" index="0" speed="13.89" length="0.20" shape="525.65,1431.17 525.79,1431.04"/>
    </edge>
    <edge id="abovyan_4_to_abovyan_4_to_sayat_nova_4-" from="abovyan_4" to="abovyan_4_to_sayat_nova_4-" priority="1">
        <lane id="abovyan_4_to_abovyan_4_to_sayat_nova_4-_0" index="0" speed="13.89" length="168.65" shape="521.15,1431.04 409.71,1304.46"/>
    </edge>
    <edge id="abovyan_4_to_abovyan_4_to_sayat_nova_5" from="abovyan_4" to="abovyan_4_to_sayat_nova_5" priority="1">
        <lane id="abovyan_4_to_abovyan_4_to_sayat_nova_5_0" index="0" speed="13.89" length="171.51" shape="521.15,1431.04 407.82,1302.31"/>
    </edge>
    <edge id="abovyan_4_to_moskovyan_3_to_abovyan_4" from="abovyan_4" to="moskovyan_3_to_abovyan_4" priority="1">
        <lane id="abovyan_4_to_moskovyan_3_to_abovyan_4_0" index="0" speed="13.89" length="163.70" shape="527.65,1433.54 637.85,1554.60"/>
    </edge>
    <edge id="abovyan_5_to_abovyan_4_to_abovyan_5" from="abovyan_5" to="abovyan_4_to_abovyan_5" priority="1">
        <lane id="abovyan_5_to_abovyan_4_to_abovyan_5_0" index="0" speed="13.89" length="187.60" shape="396.45,1290.89 523.77,1428.67"/>
    </edge>
    <edge id="abovyan_5_to_sayat_nova_4_to_abovyan_5" from="abovyan_5" to="sayat_nova_4_to_abovyan_5" priority="1">
        <lane id="abovyan_5_to_sayat_nova_4_to_abovyan_5_0" index="0" speed="13.89" length="12.76" shape="398.80,1288.63 407.83,1297.64"/>
    </edge>
    <edge id="abovyan_5_to_sayat_nova_5-_to_abovyan_5" from="abovyan_5" to="sayat_nova_5-_to_abovyan_5" priority="1">
        <lane id="abovyan_5_to_sayat_nova_5-_to_abovyan_5_0" index="0" speed="13.89" length="9.60" shape="398.80,1288.63 405.60,1295.41"/>
    </edge>
    <edge id="alek_manukyan_1-_to_sayat_nova_1_to_alek_manukyan_1-" from="alek_manukyan_1-" to="sayat_nova_1_to_alek_manukyan_1-" priority="1">
        <lane id="alek_manukyan_1-_to_sayat_nova_1_to_alek_manukyan_1-_0" index="0" speed="13.89" length="311.85" shape="810.96,478.12 909.30,774.06"/>
    </edge>
    <edge id="alek_manukyan_1-_to_sayat_nova_2-_to_alek_manukyan_1-" from="alek_manukyan_1-" to="sayat_nova_2-_to_alek_manukyan_1-" priority="1">
        <lane id="alek_manukyan_1-_to_sayat_nova_2-_to_alek_manukyan_1-_0" index="0" speed="13.89" length="310.04" shape="810.96,478.12 908.73,772.34"/>
    </edge>
    <edge id="alek_manukyan_1_to_alek_manukyan_1_to_alek_manukyan_2" from="alek_manukyan_1" to="alek_manukyan_1_to_alek_manukyan_2" priority="1">
        <lane id="alek_manukyan_1_to_alek_manukyan_1_to_alek_manukyan_2_0" index="0" speed="13.89" length="0.20" shape="812.67,479.78 812.49,479.86"/>
    </edge>
    <edge id="alek_manukyan_1_to_alek_manukyan_1_to_sayat_nova_1-" from="alek_manukyan_1" to="alek_manukyan_1_to_sayat_nova_1-" priority="1">
        <lane id="alek_manukyan_1_to_alek_manukyan_1_to_sayat_nova_1-_0" index="0" speed="13.89" length="306.65" shape="816.06,481.84 909.31,773.97"/>
    </edge>
    <edge id="alek_manukyan_1_to_alek_manukyan_1_to_sayat_nova_2" from="alek_manukyan_1" to="alek_manukyan_1_to_sayat_nova_2" priority="1">
        <lane id="alek_manukyan_1_to_alek_manukyan_1_to_sayat_nova_2_0" index="0" speed="13.89" length="304.86" shape="816.06,481.84 908.77,772.26"/>
    </edge>
    <edge id="alek_manukyan_2_to_alek_manukyan_1_to_alek_manukyan_2" from="alek_manukyan_2" to="alek_manukyan_1_to_alek_manukyan_2" priority="1">
        <lane id="alek_manukyan_2_to_alek_manukyan_1_to_alek_manukyan_2_0" index="0" speed="13.89" length="528.22" shape="934.54,997.10 811.19,483.49"/>
    </edge>
    <edge id="alek_manukyan_2_to_alek_manukyan_2_to_charents_2-" from="alek_manukyan_2" to="alek_manukyan_2_to_charents_2-" priority="1">
        <lane id="alek_manukyan_2_to_alek_manukyan_2_to_charents_2-_0" index="0" speed="13.89" length="60.64" shape="945.22,1043.59 942.55,1104.18"/>
    </edge>
    <edge id="alek_manukyan_2_to_alek_manukyan_2_to_heratsi_2" from="alek_manukyan_2" to="alek_manukyan_2_to_heratsi_2" priority="1">
        <lane id="alek_manukyan_2_to_alek_manukyan_2_to_heratsi_2_0" index="0" speed="13.89" length="272.88" shape="948.90,1041.50 1021.31,1304.59"/>
    </edge>
    <edge id="alek_manukyan_2_to_alek_manukyan_2_to_isahakyan_1" from="alek_manukyan_2" to="alek_manukyan_2_to_isahakyan_1" priority="1">
        <lane id="alek_manukyan_2_to_alek_manukyan_2_to_isahakyan_1_0" index="0" speed="13.89" length="48.95" shape="945.22,1043.59 943.06,1092.50"/>
    </edge>
    <edge id="alek_manukyan_2_to_sayat_nova_1_to_alek_manukyan_2" from="alek_manukyan_2" to="sayat_nova_1_to_alek_manukyan_2" priority="1">
        <lane id="alek_manukyan_2_to_sayat_nova_1_to_alek_manukyan_2_0" index="0" speed="13.89" length="215.17" shape="937.82,996.48 907.99,783.39"/>
    </edge>
    <edge id="alek_manukyan_2_to_sayat_nova_2-_to_alek_manukyan_2" from="alek_manukyan_2" to="sayat_nova_2-_to_alek_manukyan_2" priority="1">
        <lane id="alek_manukyan_2_to_sayat_nova_2-_to_alek_manukyan_2_0" index="0" speed="13.89" length="216.99" shape="937.82,996.48 907.74,781.58"/>
    </edge>
    <edge id="baghramyan_1-_to_baghramyan_1-_to_mesrop_mashtoc_3-" from="baghramyan_1-" to="baghramyan_1-_to_mesrop_mashtoc_3-" priority="1">
        <lane id="baghramyan_1-_to_baghramyan_1-_to_mesrop_mashtoc_3-_0" index="0" speed="13.89" length="46.76" shape="34.57,1769.96 63.30,1733.07"/>
    </edge>
    <edge id="baghramyan_1-_to_baghramyan_1-_to_mesrop_mashtoc_4" from="baghramyan_1-" to="baghramyan_1-_to_mesrop_mashtoc_4" priority="1">
        <lane id="baghramyan_1-_to_baghramyan_1-_to_mesrop_mashtoc_4_0" index="0" speed="13.89" length="51.75" shape="34.57,1769.96 66.37,1729.13"/>
    </edge>
    <edge id="baghramyan_1-_to_baghramyan_1-_to_sayat_nova_6-" from="baghramyan_1-" to="baghramyan_1-_to_sayat_nova_6-" priority="1">
        <lane id="baghramyan_1-_to_baghramyan_1-_to_sayat_nova_6-_0" index="0" speed="13.89" length="50.65" shape="34.57,1769.96 65.69,1729.99"/>
    </edge>
    <edge id="baghramyan_1_to_mesrop_mashtoc_3_to_baghramyan_1" from="baghramyan_1" to="mesrop_mashtoc_3_to_baghramyan_1" priority="1">
        <lane id="baghramyan_1_to_mesrop_mashtoc_3_to_baghramyan_1_0" index="0" speed="13.89" length="75.84" shape="57.27,1775.23 122.05,1735.77"/>
    </edge>
    <edge id="baghramyan_1_to_mesrop_mashtoc_4-_to_baghramyan_1" from="baghramyan_1" to="mesrop_mashtoc_4-_to_baghramyan_1" priority="1">
        <lane id="baghramyan_1_to_mesrop_mashtoc_4-_to_baghramyan_1_0" index="0" speed="13.89" length="119.13" shape="50.42,1772.20 62.77,1653.71"/>
    </edge>
    <edge id="baghramyan_1_to_sayat_nova_6_to_baghramyan_1" from="baghramyan_1" to="sayat_nova_6_to_baghramyan_1" priority="1">
        <lane id="baghramyan_1_to_sayat_nova_6_to_baghramyan_1_0" index="0" speed="13.89" length="132.73" shape="54.64,1772.51 126.98,1661.23"/>
    </edge>
    <edge id="charents_1-_to_charents_2-_to_charents_1-" from="charents_1-" to="charents_2-_to_charents_1-" priority="1">
        <lane id="charents_1-_to_charents_2-_to_charents_1-_0" index="0" speed="13.89" length="1043.61" shape="1144.79,37.95 1158.14,1081.48"/>
    </edge>
    <edge id="charents_1-_to_sayat_nova_1-_to_charents_1-" from="charents_1-" to="sayat_nova_1-_to_charents_1-" priority="1">
        <lane id="charents_1-_to_sayat_nova_1-_to_charents_1-_0" index="0" speed="13.89" length="517.38" shape="1141.46,37.85 1102.67,553.77"/>
    </edge>
    <edge id="charents_1_to_charents_1_to_charents_2" from="charents_1" to="charents_1_to_charents_2" priority="1">
        <lane id="charents_1_to_charents_1_to_charents_2_0" index="0" speed="13.89" length="0.20" shape="1144.77,2.17 1144.57,2.18"/>
    </edge>
    <edge id="charents_1_to_charents_1_to_sayat_nova_1" from="charents_1" to="charents_1_to_sayat_nova_1" priority="1">
        <lane id="charents_1_to_charents_1_to_sayat_nova_1_0" index="0" speed="13.89" length="539.93" shape="1146.71,5.27 1139.83,545.15"/>
    </edge>
    <edge id="charents_2-_to_alek_manukyan_2_to_charents_2-" from="charents_2-" to="alek_manukyan_2_to_charents_2-" priority="1">
        <lane id="charents_2-_to_alek_manukyan_2_to_charents_2-_0" index="0" speed="13.89" length="205.37" shape="1150.22,1088.24 945.72,1107.20"/>
    </edge>
    <edge id="charents_2-_to_charents_2-_to_charents_1-" from="charents_2-" to="charents_2-_to_charents_1-" priority="1">
        <lane id="charents_2-_to_charents_2-_to_charents_1-_0" index="0" speed="13.89" length="0.20" shape="1157.50,1084.64 1157.70,1084.64"/>
    </edge>
    <edge id="charents_2-_to_charents_2-_to_sayat_nova_1" from="charents_2-" to="charents_2-_to_sayat_nova_1" priority="1">
        <lane id="charents_2-_to_charents_2-_to_sayat_nova_1_0" index="0" speed="13.89" length="483.35" shape="1153.49,1080.31 1130.26,597.52"/>
    </edge>
    <edge id="charents_2-_to_heratsi_2-_to_charents_2-" from="charents_2-" to="heratsi_2-_to_charents_2-" priority="1">
        <lane id="charents_2-_to_heratsi_2-_to_charents_2-_0" index="0" speed="13.89" length="548.98" shape="1155.41,1091.29 987.81,1614.07"/>
    </edge>
    <edge id="charents_2-_to_koryun_1-_to_charents_2-" from="charents_2-" to="koryun_1-_to_charents_2-" priority="1">
        <lane id="charents_2-_to_koryun_1-_to_charents_2-_0" index="0" speed="13.89" length="472.20" shape="1155.55,1091.33 1024.86,1545.08"/>
    </edge>
    <edge id="charents_2-_to_nalbandyan_1-_to_charents_2-" from="charents_2-" to="nalbandyan_1-_to_charents_2-" priority="1">
        <lane id="charents_2-_to_nalbandyan_1-_to_charents_2-_0" index="0" speed="13.89" length="402.43" shape="1155.70,1091.37 1056.84,1481.46"/>
    </edge>
    <edge id="charents_2-_to_sayat_nova_1-_to_charents_2-" from="charents_2-" to="sayat_nova_1-_to_charents_2-" priority="1">
        <lane id="charents_2-_to_sayat_nova_1-_to_charents_2-_0" index="0" speed="13.89" length="383.26" shape="1149.78,1081.71 910.51,782.32"/>
    </edge>
    <edge id="charents_2_to_charents_1_to_charents_2" from="charents_2" to="charents_1_to_charents_2" priority="1">
        <lane id="charents_2_to_charents_1_to_charents_2_0" index="0" speed="13.89" length="1091.65" shape="1164.12,1096.77 1142.83,5.32"/>
    </edge>
    <edge id="charents_2_to_charents_2_to_heratsi_2" from="charents_2" to="charents_2_to_heratsi_2" priority="1">
        <lane id="charents_2_to_charents_2_to_heratsi_2_0" index="0" speed="13.89" length="384.01" shape="1163.41,1103.10 1081.63,1478.29"/>
    </edge>
    <edge id="charents_2_to_charents_2_to_koryun_1" from="charents_2" to="charents_2_to_koryun_1" priority="1">
        <lane id="charents_2_to_charents_2_to_koryun_1_0" index="0" speed="13.89" length="346.58" shape="1163.06,1103.02 1082.01,1439.99"/>
    </edge>
    <edge id="heratsi_1-_to_heratsi_1-_to_khanjyan_1" from="heratsi_1-" to="heratsi_1-_to_khanjyan_1" priority="1">
        <lane id="heratsi_1-_to_heratsi_1-_to_khanjyan_1_0" index="0" speed="13.89" length="2.01" shape="869.75,1163.16 869.06,1161.27"/>
    </edge>
    <edge id="heratsi_1-_to_heratsi_1-_to_khanjyan_2-" from="heratsi_1-" to="heratsi_1-_to_khanjyan_2-" priority="1">
        <lane id="heratsi_1-_to_heratsi_1-_to_khanjyan_2-_0" index="0" speed="13.89" length="459.45" shape="869.87,1163.11 750.07,719.56"/>
    </edge>
    <edge id="heratsi_1-_to_heratsi_2-_to_heratsi_1-" from="heratsi_1-" to="heratsi_2-_to_heratsi_1-" priority="1">
        <lane id="heratsi_1-_to_heratsi_2-_to_heratsi_1-_0" index="0" speed="13.89" length="583.69" shape="873.76,1164.95 1052.65,1720.55"/>
    </edge>
    <edge id="heratsi_1_to_heratsi_1_to_heratsi_2" from="heratsi_1" to="heratsi_1_to_heratsi_2" priority="1">
        <lane id="heratsi_1_to_heratsi_1_to_heratsi_2_0" index="0" speed="13.89" length="607.19" shape="867.31,1141.27 1052.33,1719.58"/>
    </edge>
    <edge id="heratsi_2-_to_heratsi_2-_to_charents_2-" from="heratsi_2-" to="heratsi_2-_to_charents_2-" priority="1">
        <lane id="heratsi_2-_to_heratsi_2-_to_charents_2-_0" index="0" speed="13.89" length="206.19" shape="1107.09,1786.76 988.44,1618.13"/>
    </edge>
    <edge id="heratsi_2-_to_heratsi_2-_to_heratsi_1-" from="heratsi_2-" to="heratsi_2-_to_heratsi_1-" priority="1">
        <lane id="heratsi_2-_to_heratsi_2-_to_heratsi_1-_0" index="0" speed="13.89" length="82.14" shape="1104.46,1788.70 1054.28,1723.66"/>
    </edge>
    <edge id="heratsi_2-_to_heratsi_2-_to_koryun_1" from="heratsi_2-" to="heratsi_2-_to_koryun_1" priority="1">
        <lane id="heratsi_2-_to_heratsi_2-_to_koryun_1_0" index="0" speed="13.89" length="233.58" shape="1132.01,1829.96 965.80,1665.85"/>
    </edge>
    <edge id="heratsi_2_to_alek_manukyan_2_to_heratsi_2" from="heratsi_2" to="alek_manukyan_2_to_heratsi_2" priority="1">
        <lane id="heratsi_2_to_alek_manukyan_2_to_heratsi_2_0" index="0" speed="13.89" length="547.75" shape="1155.82,1838.69 1018.98,1308.30"/>
    </edge>
    <edge id="heratsi_2_to_charents_2_to_heratsi_2" from="heratsi_2" to="charents_2_to_heratsi_2" priority="1">
        <lane id="heratsi_2_to_charents_2_to_heratsi_2_0" index="0" speed="13.89" length="364.41" shape="1156.19,1838.60 1081.62,1481.90"/>
    </edge>
    <edge id="heratsi_2_to_heratsi_1_to_heratsi_2" from="heratsi_2" to="heratsi_1_to_heratsi_2" priority="1">
        <lane id="heratsi_2_to_heratsi_1_to_heratsi_2_0" index="0" speed="13.89" length="153.42" shape="1152.45,1840.40 1054.04,1722.70"/>
    </edge>
    <edge id="heratsi_2_to_koryun_1-_to_heratsi_2" from="heratsi_2" to="koryun_1-_to_heratsi_2" priority="1">
        <lane id="heratsi_2_to_koryun_1-_to_heratsi_2_0" index="0" speed="13.89" length="444.27" shape="1156.61,1838.49 1089.06,1399.39"/>
    </edge>
    <edge id="heratsi_2_to_nalbandyan_1-_to_heratsi_2" from="heratsi_2" to="nalbandyan_1-_to_heratsi_2" priority="1">
        <lane id="heratsi_2_to_nalbandyan_1-_to_heratsi_2_0" index="0" speed="13.89" length="447.96" shape="1156.61,1838.49 1088.50,1395.74"/>
    </edge>
    <edge id="isahakyan_1_to_alek_manukyan_2_to_isahakyan_1" from="isahakyan_1" to="alek_manukyan_2_to_isahakyan_1" priority="1">
        <lane id="isahakyan_1_to_alek_manukyan_2_to_isahakyan_1_0" index="0" speed="13.89" length="411.68" shape="816.43,1487.77 942.46,1095.85"/>
    </edge>
    <edge id="isahakyan_1_to_isahakyan_1_to_abovyan_2-" from="isahakyan_1" to="isahakyan_1_to_abovyan_2-" priority="1">
        <lane id="isahakyan_1_to_isahakyan_1_to_abovyan_2-_0" index="0" speed="13.89" length="129.57" shape="792.03,1537.76 712.89,1640.36"/>
    </edge>
    <edge id="isahakyan_1_to_isahakyan_1_to_abovyan_3" from="isahakyan_1" to="isahakyan_1_to_abovyan_3" priority="1">
        <lane id="isahakyan_1_to_isahakyan_1_to_abovyan_3_0" index="0" speed="13.89" length="312.68" shape="789.48,1535.58 574.02,1762.17"/>
    </edge>
    <edge id="isahakyan_1_to_isahakyan_1_to_isahakyan_2" from="isahakyan_1" to="isahakyan_1_to_isahakyan_2" priority="1">
        <lane id="isahakyan_1_to_isahakyan_1_to_isahakyan_2_0" index="0" speed="13.89" length="0.20" shape="807.39,1511.03 807.21,1510.93"/>
    </edge>
    <edge id="isahakyan_1_to_nalbandyan_1_to_isahakyan_1" from="isahakyan_1" to="nalbandyan_1_to_isahakyan_1" priority="1">
        <lane id="isahakyan_1_to_nalbandyan_1_to_isahakyan_1_0" index="0" speed="13.89" length="127.31" shape="819.59,1489.04 875.48,1374.66"/>
    </edge>
    <edge id="isahakyan_1_to_nalbandyan_2-_to_isahakyan_1" from="isahakyan_1" to="nalbandyan_2-_to_isahakyan_1" priority="1">
        <lane id="isahakyan_1_to_nalbandyan_2-_to_isahakyan_1_0" index="0" speed="13.89" length="131.47" shape="819.59,1489.04 877.31,1370.91"/>
    </edge>
    <edge id="isahakyan_2_to_abovyan_2_to_isahakyan_2" from="isahakyan_2" to="abovyan_2_to_isahakyan_2" priority="1">
        <lane id="isahakyan_2_to_abovyan_2_to_isahakyan_2_0" index="0" speed="13.89" length="61.22" shape="662.94,1685.58 706.44,1642.49"/>
    </edge>
    <edge id="isahakyan_2_to_isahakyan_1_to_isahakyan_2" from="isahakyan_2" to="isahakyan_1_to_isahakyan_2" priority="1">
        <lane id="isahakyan_2_to_isahakyan_1_to_isahakyan_2_0" index="0" speed="13.89" length="223.38" shape="660.50,1683.32 804.62,1512.66"/>
    </edge>
    <edge id="isahakyan_2_to_isahakyan_2_to_isahakyan_3" from="isahakyan_2" to="isahakyan_2_to_isahakyan_3" priority="1">
        <lane id="isahakyan_2_to_isahakyan_2_to_isahakyan_3_0" index="0" speed="13.89" length="0.20" shape="636.71,1709.91 636.84,1710.06"/>
    </edge>
    <edge id="isahakyan_2_to_isahakyan_2_to_teryan_2-" from="isahakyan_2" to="isahakyan_2_to_teryan_2-" priority="1">
        <lane id="isahakyan_2_to_isahakyan_2_to_teryan_2-_0" index="0" speed="13.89" length="95.51" shape="635.15,1716.97 560.57,1776.65"/>
    </edge>
    <edge id="isahakyan_2_to_isahakyan_2_to_teryan_3" from="isahakyan_2" to="isahakyan_2_to_teryan_3" priority="1">
        <lane id="isahakyan_2_to_isahakyan_2_to_teryan_3_0" index="0" speed="13.89" length="92.66" shape="635.15,1716.97 562.80,1774.87"/>
    </edge>
    <edge id="isahakyan_3_to_isahakyan_2_to_isahakyan_3" from="isahakyan_3" to="isahakyan_2_to_isahakyan_3" priority="1">
        <lane id="isahakyan_3_to_isahakyan_2_to_isahakyan_3_0" index="0" speed="13.89" length="247.36" shape="427.22,1846.97 635.55,1713.60"/>
    </edge>
    <edge id="isahakyan_3_to_isahakyan_3_to_isahakyan_4" from="isahakyan_3" to="isahakyan_3_to_isahakyan_4" priority="1">
        <lane id="isahakyan_3_to_isahakyan_3_to_isahakyan_4_0" index="0" speed="13.89" length="0.20" shape="425.70,1850.51 425.78,1850.69"/>
    </edge>
    <edge id="isahakyan_3_to_isahakyan_3_to_mesrop_mashtoc_1-" from="isahakyan_3" to="isahakyan_3_to_mesrop_mashtoc_1-" priority="1">
        <lane id="isahakyan_3_to_isahakyan_3_to_mesrop_mashtoc_1-_0" index="0" speed="13.89" length="134.12" shape="423.41,1852.81 297.13,1897.98"/>
    </edge>
    <edge id="isahakyan_3_to_isahakyan_3_to_mesrop_mashtoc_2" from="isahakyan_3" to="isahakyan_3_to_mesrop_mashtoc_2" priority="1">
        <lane id="isahakyan_3_to_isahakyan_3_to_mesrop_mashtoc_2_0" index="0" speed="13.89" length="131.68" shape="423.41,1852.81 299.43,1897.16"/>
    </edge>
    <edge id="isahakyan_3_to_teryan_2_to_isahakyan_3" from="isahakyan_3" to="teryan_2_to_isahakyan_3" priority="1">
        <lane id="isahakyan_3_to_teryan_2_to_isahakyan_3_0" index="0" speed="13.89" length="143.82" shape="427.38,1847.22 553.16,1777.49"/>
    </edge>
    <edge id="isahakyan_3_to_teryan_3-_to_isahakyan_3" from="isahakyan_3" to="teryan_3-_to_isahakyan_3" priority="1">
        <lane id="isahakyan_3_to_teryan_3-_to_isahakyan_3_0" index="0" speed="13.89" length="146.70" shape="427.38,1847.22 555.69,1776.09"/>
    </edge>
    <edge id="isahakyan_4_to_isahakyan_3_to_isahakyan_4" from="isahakyan_4" to="isahakyan_3_to_isahakyan_4" priority="1">
        <lane id="isahakyan_4_to_isahakyan_3_to_isahakyan_4_0" index="0" speed="13.89" length="237.57" shape="194.03,1916.84 422.18,1850.60"/>
    </edge>
    <edge id="isahakyan_4_to_mesrop_mashtoc_1_to_isahakyan_4" from="isahakyan_4" to="mesrop_mashtoc_1_to_isahakyan_4" priority="1">
        <lane id="isahakyan_4_to_mesrop_mashtoc_1_to_isahakyan_4_0" index="0" speed="13.89" length="83.38" shape="195.04,1920.67 276.22,1901.64"/>
    </edge>
    <edge id="isahakyan_4_to_mesrop_mashtoc_2-_to_isahakyan_4" from="isahakyan_4" to="mesrop_mashtoc_2-_to_isahakyan_4" priority="1">
        <lane id="isahakyan_4_to_mesrop_mashtoc_2-_to_isahakyan_4_0" index="0" speed="13.89" length="98.28" shape="194.87,1919.99 290.35,1896.67"/>
    </edge>
    <edge id="khanjyan_1-_to_khanjyan_1-_to_khanjyan_2-" from="khanjyan_1-" to="khanjyan_1-_to_khanjyan_2-" priority="1">
        <lane id="khanjyan_1-_to_khanjyan_1-_to_khanjyan_2-_0" index="0" speed="13.89" length="0.20" shape="818.02,1189.21 818.22,1189.24"/>
    </edge>
    <edge id="khanjyan_1-_to_khanjyan_1-_to_sayat_nova_2-" from="khanjyan_1-" to="khanjyan_1-_to_sayat_nova_2-" priority="1">
        <lane id="khanjyan_1-_to_khanjyan_1-_to_sayat_nova_2-_0" index="0" speed="13.89" length="304.31" shape="813.60,1185.71 806.69,881.48"/>
    </edge>
    <edge id="khanjyan_1-_to_khanjyan_1-_to_sayat_nova_3" from="khanjyan_1-" to="khanjyan_1-_to_sayat_nova_3" priority="1">
        <lane id="khanjyan_1-_to_khanjyan_1-_to_sayat_nova_3_0" index="0" speed="13.89" length="305.43" shape="813.60,1185.71 806.67,880.36"/>
    </edge>
    <edge id="khanjyan_1-_to_moskovyan_4_to_khanjyan_1-" from="khanjyan_1-" to="moskovyan_4_to_khanjyan_1-" priority="1">
        <lane id="khanjyan_1-_to_moskovyan_4_to_khanjyan_1-_0" index="0" speed="13.89" length="100.72" shape="816.63,1192.10 798.94,1291.25"/>
    </edge>
    <edge id="khanjyan_1-_to_nalbandyan_2_to_khanjyan_1-" from="khanjyan_1-" to="nalbandyan_2_to_khanjyan_1-" priority="1">
        <lane id="khanjyan_1-_to_nalbandyan_2_to_khanjyan_1-_0" index="0" speed="13.89" length="113.38" shape="816.63,1192.10 796.72,1303.71"/>
    </edge>
    <edge id="khanjyan_1-_to_nalbandyan_3-_to_khanjyan_1-" from="khanjyan_1-" to="nalbandyan_3-_to_khanjyan_1-" priority="1">
        <lane id="khanjyan_1-_to_nalbandyan_3-_to_khanjyan_1-_0" index="0" speed="13.89" length="107.65" shape="816.63,1192.10 797.73,1298.07"/>
    </edge>
    <edge id="khanjyan_1_to_heratsi_1-_to_khanjyan_1" from="khanjyan_1" to="heratsi_1-_to_khanjyan_1" priority="1">
        <lane id="khanjyan_1_to_heratsi_1-_to_khanjyan_1_0" index="0" speed="13.89" length="53.34" shape="823.29,1193.52 864.87,1160.10"/>
    </edge>
    <edge id="khanjyan_1_to_khanjyan_1_to_nalbandyan_2-" from="khanjyan_1" to="khanjyan_1_to_nalbandyan_2-" priority="1">
        <lane id="khanjyan_1_to_khanjyan_1_to_nalbandyan_2-_0" index="0" speed="13.89" length="109.20" shape="821.22,1196.87 796.79,1303.30"/>
    </edge>
    <edge id="khanjyan_1_to_khanjyan_1_to_nalbandyan_3" from="khanjyan_1" to="khanjyan_1_to_nalbandyan_3" priority="1">
        <lane id="khanjyan_1_to_khanjyan_1_to_nalbandyan_3_0" index="0" speed="13.89" length="104.16" shape="821.22,1196.87 797.92,1298.39"/>
    </edge>
    <edge id="khanjyan_1_to_sayat_nova_2_to_khanjyan_1" from="khanjyan_1" to="sayat_nova_2_to_khanjyan_1" priority="1">
        <lane id="khanjyan_1_to_sayat_nova_2_to_khanjyan_1_0" index="0" speed="13.89" length="312.34" shape="817.31,1193.50 806.76,881.34"/>
    </edge>
    <edge id="khanjyan_2-_to_heratsi_1-_to_khanjyan_2-" from="khanjyan_2-" to="heratsi_1-_to_khanjyan_2-" priority="1">
        <lane id="khanjyan_2-_to_heratsi_1-_to_khanjyan_2-_0" index="0" speed="13.89" length="76.28" shape="720.98,647.43 752.48,716.90"/>
    </edge>
    <edge id="khanjyan_2-_to_khanjyan_1-_to_khanjyan_2-" from="khanjyan_2-" to="khanjyan_1-_to_khanjyan_2-" priority="1">
        <lane id="khanjyan_2-_to_khanjyan_1-_to_khanjyan_2-_0" index="0" speed="13.89" length="605.17" shape="692.12,594.04 819.02,1185.76"/>
    </edge>
    <edge id="khanjyan_2-_to_sayat_nova_2_to_khanjyan_2-" from="khanjyan_2-" to="sayat_nova_2_to_khanjyan_2-" priority="1">
        <lane id="khanjyan_2-_to_sayat_nova_2_to_khanjyan_2-_0" index="0" speed="13.89" length="241.33" shape="717.98,648.71 808.61,872.38"/>
    </edge>
    <edge id="khanjyan_2-_to_sayat_nova_3-_to_khanjyan_2-" from="khanjyan_2-" to="sayat_nova_3-_to_khanjyan_2-" priority="1">
        <lane id="khanjyan_2-_to_sayat_nova_3-_to_khanjyan_2-_0" index="0" speed="13.89" length="239.07" shape="717.98,648.71 807.76,870.28"/>
    </edge>
    <edge id="koryun_1-_to_abovyan_1_to_koryun_1-" from="koryun_1-" to="abovyan_1_to_koryun_1-" priority="1">