<?xml version="1.0" encoding="UTF-8"?>

<!-- generated on 2025-04-05 18:59:13 by Eclipse SUMO netconvert Version 1.20.0
<configuration xmlns:xsi="http://www.w3.org/2001/XMLSchema-instance" xsi:noNamespaceSchemaLocation="http://sumo.dlr.de/xsd/netconvertConfiguration.xsd">

    <input>
        <node-files value="nodes_final.xml"/>
        <edge-files value="edges_final.xml"/>
    </input>

    <output>
        <output-file value="network_final.net.xml"/>
    </output>

</configuration>
-->

<net version="1.20" junctionCornerDetail="5" limitTurnSpeed="5.50" xmlns:xsi="http://www.w3.org/2001/XMLSchema-instance" xsi:noNamespaceSchemaLocation="http://sumo.dlr.de/xsd/net_file.xsd">

    <location netOffset="-44.51,-40.17" convBoundary="0.00,0.00,0.01,0.02" origBoundary="44.51,40.17,44.53,40.19" projParameter="!"/>

    <edge id=":abovyan_2_0" function="internal">
        <lane id=":abovyan_2_0_0" index="0" speed="6.19" length="2.90" shape="-2.44,-0.02 -0.03,1.62"/>
    </edge>
    <edge id=":abovyan_2_1" function="internal">
        <lane id=":abovyan_2_1_0" index="0" speed="13.89" length="1.83" shape="-2.44,-0.02 -1.07,1.20"/>
    </edge>
    <edge id=":abovyan_2_2" function="internal">
        <lane id=":abovyan_2_2_0" index="0" speed="3.59" length="2.12" shape="-1.60,0.19 -0.03,1.62"/>
    </edge>
    <edge id=":abovyan_2_3" function="internal">
        <lane id=":abovyan_2_3_0" index="0" speed="3.70" length="1.15" shape="-1.60,0.19 -1.07,1.20"/>
    </edge>
    <edge id=":abovyan_2-_0" function="internal">
        <lane id=":abovyan_2-_0_0" index="0" speed="3.52" length="2.12" shape="1.57,0.35 0.64,-1.55"/>
    </edge>
    <edge id=":abovyan_2-_1" function="internal">
        <lane id=":abovyan_2-_1_0" index="0" speed="4.40" length="2.27" shape="1.57,0.35 0.50,-1.65"/>
    </edge>
    <edge id=":abovyan_2-_2" function="internal">
        <lane id=":abovyan_2-_2_0" index="0" speed="6.14" length="2.21" shape="-1.08,-2.95 0.64,-1.55"/>
    </edge>
    <edge id=":abovyan_2-_3" function="internal">
        <lane id=":abovyan_2-_3_0" index="0" speed="13.89" length="2.04" shape="-1.08,-2.95 0.50,-1.65"/>
    </edge>
    <edge id=":abovyan_3_0" function="internal">
        <lane id=":abovyan_3_0_0" index="0" speed="13.89" length="0.25" shape="-1.22,1.07 -1.03,1.23"/>
    </edge>
    <edge id=":abovyan_3_1" function="internal">
        <lane id=":abovyan_3_1_0" index="0" speed="3.27" length="1.15" shape="-1.22,1.07 -2.31,1.45"/>
    </edge>
    <edge id=":abovyan_3_2" function="internal">
        <lane id=":abovyan_3_2_0" index="0" speed="3.64" length="1.54" shape="0.30,1.67 -0.10,1.81 -0.40,1.75 -0.69,1.54 -1.03,1.23"/>
    </edge>
    <edge id=":abovyan_3_3" function="internal">
        <lane id=":abovyan_3_3_0" index="0" speed="3.74" length="3.81" shape="0.30,1.67 -1.15,2.34 -2.07,2.53 -2.46,2.23 -2.31,1.45"/>
    </edge>
    <edge id=":abovyan_3-_0" function="internal">
        <lane id=":abovyan_3-_0_0" index="0" speed="7.27" length="5.58" shape="4.32,-2.53 -1.23,-3.08"/>
    </edge>
    <edge id=":abovyan_4_0" function="internal">
        <lane id=":abovyan_4_0_0" index="0" speed="5.50" length="3.85" shape="-1.69,-0.15 1.50,2.01"/>
    </edge>
    <edge id=":abovyan_4_1" function="internal">
        <lane id=":abovyan_4_1_0" index="0" speed="7.54" length="3.33" shape="-1.69,-0.15 0.41,2.44"/>
    </edge>
    <edge id=":abovyan_4_2" function="internal">
        <lane id=":abovyan_4_2_0" index="0" speed="13.89" length="0.19" shape="-1.69,-0.15 -1.62,0.04"/>
    </edge>
    <edge id=":abovyan_4_3" function="internal">
        <lane id=":abovyan_4_3_0" index="0" speed="8.33" length="2.83" shape="-1.18,1.10 1.50,2.01"/>
    </edge>
    <edge id=":abovyan_4_4" function="internal">
        <lane id=":abovyan_4_4_0" index="0" speed="13.89" length="2.08" shape="-1.18,1.10 0.41,2.44"/>
    </edge>
    <edge id=":abovyan_4_5" function="internal">
        <lane id=":abovyan_4_5_0" index="0" speed="4.67" length="1.19" shape="-1.18,1.10 -1.41,0.85 -1.52,0.64 -1.56,0.39 -1.62,0.04"/>
    </edge>
    <edge id=":alek_manukyan_2_0" function="internal">
        <lane id=":alek_manukyan_2_0_0" index="0" speed="4.31" length="3.46" shape="1.54,0.48 -1.02,-1.84"/>
    </edge>
    <edge id=":alek_manukyan_2_1" function="internal">
        <lane id=":alek_manukyan_2_1_0" index="0" speed="13.89" length="0.30" shape="1.54,0.48 1.82,0.36"/>
    </edge>
    <edge id=":alek_manukyan_2_2" function="internal">
        <lane id=":alek_manukyan_2_2_0" index="0" speed="13.89" length="1.57" shape="1.54,0.48 1.42,0.93 1.30,1.23 1.17,1.52 1.00,1.95"/>
    </edge>
    <edge id=":alek_manukyan_2_3" function="internal">
        <lane id=":alek_manukyan_2_3_0" index="0" speed="4.33" length="2.12" shape="1.10,-1.94 -1.02,-1.84"/>
    </edge>
    <edge id=":alek_manukyan_2_4" function="internal">
        <lane id=":alek_manukyan_2_4_0" index="0" speed="13.89" length="2.41" shape="1.10,-1.94 1.82,0.36"/>
    </edge>
    <edge id=":alek_manukyan_2_5" function="internal">
        <lane id=":alek_manukyan_2_5_0" index="0" speed="7.85" length="4.01" shape="1.10,-1.94 1.41,-0.80 1.51,0.02 1.38,0.84 1.00,1.95"/>
    </edge>
    <edge id=":alek_manukyan_2_6" function="internal">
        <lane id=":alek_manukyan_2_6_0" index="0" speed="4.61" length="1.96" shape="0.05,-3.48 -1.02,-1.84"/>
    </edge>
    <edge id=":alek_manukyan_2_7" function="internal">
        <lane id=":alek_manukyan_2_7_0" index="0" speed="13.89" length="4.23" shape="0.05,-3.48 0.63,-2.36 1.04,-1.60 1.39,-0.82 1.82,0.36"/>
    </edge>
    <edge id=":alek_manukyan_2_8" function="internal">
        <lane id=":alek_manukyan_2_8_0" index="0" speed="7.76" length="5.65" shape="0.05,-3.48 0.75,-1.87 1.14,-0.42 1.22,0.85 1.00,1.95"/>
    </edge>
    <edge id=":charents_2_0" function="internal">
        <lane id=":charents_2_0_0" index="0" speed="13.89" length="0.88" shape="1.60,-0.67 1.61,0.21"/>
    </edge>
    <edge id=":charents_2_1" function="internal">
        <lane id=":charents_2_1_0" index="0" speed="9.30" length="3.30" shape="1.60,-0.67 1.56,0.29 1.38,0.93 1.07,1.54 0.60,2.41"/>
    </edge>
    <edge id=":charents_2-_0" function="internal">
        <lane id=":charents_2-_0_0" index="0" speed="3.23" length="2.70" shape="0.11,-3.65 -1.63,-5.72"/>
    </edge>
    <edge id=":charents_2-_1" function="internal">
        <lane id=":charents_2-_1_0" index="0" speed="4.16" length="3.38" shape="0.11,-3.65 1.36,-1.99 1.52,-0.70"/>
    </edge>
    <edge id=":charents_2-_10" function="internal">
        <lane id=":charents_2-_10_0" index="0" speed="4.16" length="3.38" shape="1.52,-0.70 0.60,0.20 -1.42,0.71"/>
    </edge>
    <edge id=":charents_2-_2" function="internal">
        <lane id=":charents_2-_2_0" index="0" speed="3.42" length="2.58" shape="-0.83,-1.80 -1.42,0.71"/>
    </edge>
    <edge id=":charents_2-_3" function="internal">
        <lane id=":charents_2-_3_0" index="0" speed="4.35" length="4.01" shape="-0.83,-1.80 -1.63,-5.72"/>
    </edge>
    <edge id=":charents_2-_4" function="internal">
        <lane id=":charents_2-_4_0" index="0" speed="3.42" length="1.09" shape="-2.51,0.67 -1.42,0.71"/>
    </edge>
    <edge id=":charents_2-_5" function="internal">
        <lane id=":charents_2-_5_0" index="0" speed="9.81" length="6.69" shape="-2.51,0.67 -1.54,-0.95 -1.33,-2.27 -1.48,-3.72 -1.63,-5.72"/>
    </edge>
    <edge id=":charents_2-_6" function="internal">
        <lane id=":charents_2-_6_0" index="0" speed="3.80" length="1.18" shape="-2.45,1.28 -1.42,0.71"/>
    </edge>
    <edge id=":charents_2-_7" function="internal">
        <lane id=":charents_2-_7_0" index="0" speed="13.34" length="7.19" shape="-2.45,1.28 -1.63,-0.64 -1.42,-2.07 -1.52,-3.58 -1.63,-5.72"/>
    </edge>
    <edge id=":charents_2-_8" function="internal">
        <lane id=":charents_2-_8_0" index="0" speed="13.89" length="0.68" shape="-1.61,1.37 -1.42,0.71"/>
    </edge>
    <edge id=":charents_2-_9" function="internal">
        <lane id=":charents_2-_9_0" index="0" speed="13.89" length="7.09" shape="-1.61,1.37 -1.63,-5.72"/>
    </edge>
    <edge id=":heratsi_1-_0" function="internal">
        <lane id=":heratsi_1-_0_0" index="0" speed="4.70" length="4.14" shape="-2.44,-1.22 0.73,1.44"/>
    </edge>
    <edge id=":heratsi_1-_1" function="internal">
        <lane id=":heratsi_1-_1_0" index="0" speed="13.89" length="4.98" shape="-2.44,-1.22 -0.39,3.31"/>
    </edge>
    <edge id=":isahakyan_1_0" function="internal">
        <lane id=":isahakyan_1_0_0" index="0" speed="5.56" length="3.43" shape="-1.13,2.20 1.62,0.15"/>
    </edge>
    <edge id=":isahakyan_1_1" function="internal">
        <lane id=":isahakyan_1_1_0" index="0" speed="13.89" length="3.01" shape="-1.13,2.20 1.53,0.80"/>
    </edge>
    <edge id=":isahakyan_1_2" function="internal">
        <lane id=":isahakyan_1_2_0" index="0" speed="13.89" length="1.72" shape="-1.13,2.20 0.48,1.58"/>
    </edge>
    <edge id=":isahakyan_1_3" function="internal">
        <lane id=":isahakyan_1_3_0" index="0" speed="13.89" length="2.10" shape="0.93,2.14 1.62,0.15"/>
    </edge>
    <edge id=":isahakyan_1_4" function="internal">
        <lane id=":isahakyan_1_4_0" index="0" speed="6.29" length="1.47" shape="0.93,2.14 1.53,0.80"/>
    </edge>
    <edge id=":isahakyan_1_5" function="internal">
        <lane id=":isahakyan_1_5_0" index="0" speed="13.89" length="0.72" shape="0.93,2.14 0.48,1.58"/>
    </edge>
    <edge id=":isahakyan_1_6" function="internal">
        <lane id=":isahakyan_1_6_0" index="0" speed="13.89" length="0.61" shape="1.49,0.75 1.62,0.15"/>
    </edge>
    <edge id=":isahakyan_1_7" function="internal">
        <lane id=":isahakyan_1_7_0" index="0" speed="13.89" length="0.10" shape="1.49,0.75 1.53,0.80"/>
    </edge>
    <edge id=":isahakyan_1_8" function="internal">
        <lane id=":isahakyan_1_8_0" index="0" speed="4.10" length="1.39" shape="1.49,0.75 1.36,1.11 1.15,1.29 0.86,1.41 0.48,1.58"/>
    </edge>
    <edge id=":isahakyan_2_0" function="internal">
        <lane id=":isahakyan_2_0_0" index="0" speed="3.99" length="2.63" shape="-0.23,1.62 1.62,-0.24"/>
    </edge>
    <edge id=":isahakyan_2_1" function="internal">
        <lane id=":isahakyan_2_1_0" index="0" speed="8.79" length="2.48" shape="-0.23,1.62 2.09,0.78"/>
    </edge>
    <edge id=":isahakyan_2_2" function="internal">
        <lane id=":isahakyan_2_2_0" index="0" speed="13.89" length="1.99" shape="-0.23,1.62 -0.82,1.66 -1.21,1.75 -1.61,1.86 -2.19,1.99"/>
    </edge>
    <edge id=":isahakyan_2_3" function="internal">
        <lane id=":isahakyan_2_3_0" index="0" speed="4.08" length="1.20" shape="1.39,0.93 1.62,-0.24"/>
    </edge>
    <edge id=":isahakyan_2_4" function="internal">
        <lane id=":isahakyan_2_4_0" index="0" speed="13.89" length="0.73" shape="1.39,0.93 2.09,0.78"/>
    </edge>
    <edge id=":isahakyan_2_5" function="internal">
        <lane id=":isahakyan_2_5_0" index="0" speed="8.57" length="3.83" shape="1.39,0.93 0.50,1.58 -0.23,1.81 -1.05,1.87 -2.19,1.99"/>
    </edge>
    <edge id=":isahakyan_3_0" function="internal">
        <lane id=":isahakyan_3_0_0" index="0" speed="4.77" length="2.97" shape="0.05,1.62 2.05,-0.57"/>
    </edge>
    <edge id=":isahakyan_3_1" function="internal">
        <lane id=":isahakyan_3_1_0" index="0" speed="13.89" length="0.63" shape="0.05,1.62 0.67,1.60"/>
    </edge>
    <edge id=":isahakyan_3_2" function="internal">
        <lane id=":isahakyan_3_2_0" index="0" speed="13.89" length="2.52" shape="0.05,1.62 2.51,1.10"/>
    </edge>
    <edge id=":isahakyan_3_3" function="internal">
        <lane id=":isahakyan_3_3_0" index="0" speed="4.87" length="1.44" shape="1.91,0.86 2.05,-0.57"/>
    </edge>
    <edge id=":isahakyan_3_4" function="internal">
        <lane id=":isahakyan_3_4_0" index="0" speed="7.11" length="1.45" shape="1.91,0.86 0.67,1.60"/>
    </edge>
    <edge id=":isahakyan_3_5" function="internal">
        <lane id=":isahakyan_3_5_0" index="0" speed="13.89" length="0.64" shape="1.91,0.86 2.51,1.10"/>
    </edge>
    <edge id=":isahakyan_3_6" function="internal">
        <lane id=":isahakyan_3_6_0" index="0" speed="7.46" length="1.27" shape="3.31,-0.79 2.05,-0.57"/>
    </edge>
    <edge id=":isahakyan_3_7" function="internal">
        <lane id=":isahakyan_3_7_0" index="0" speed="6.95" length="3.56" shape="3.31,-0.79 0.67,1.60"/>
    </edge>
    <edge id=":isahakyan_3_8" function="internal">
        <lane id=":isahakyan_3_8_0" index="0" speed="7.04" length="2.05" shape="3.31,-0.79 2.51,1.10"/>
    </edge>
    <edge id=":khanjyan_1_0" function="internal">
        <lane id=":khanjyan_1_0_0" index="0" speed="4.52" length="2.95" shape="0.73,1.44 1.38,-1.44"/>
    </edge>
    <edge id=":khanjyan_1_1" function="internal">
        <lane id=":khanjyan_1_1_0" index="0" speed="8.65" length="1.68" shape="0.73,1.44 2.41,1.44"/>
    </edge>
    <edge id=":khanjyan_1_2" function="internal">
        <lane id=":khanjyan_1_2_0" index="0" speed="13.66" length="2.30" shape="1.49,0.86 1.38,-1.44"/>
    </edge>
    <edge id=":khanjyan_1_3" function="internal">
        <lane id=":khanjyan_1_3_0" index="0" speed="3.16" length="1.09" shape="1.49,0.86 2.41,1.44"/>
    </edge>
    <edge id=":khanjyan_1-_0" function="internal">
        <lane id=":khanjyan_1-_0_0" index="0" speed="5.34" length="1.10" shape="-1.23,2.20 -1.17,1.10"/>
    </edge>
    <edge id=":khanjyan_1-_1" function="internal">
        <lane id=":khanjyan_1-_1_0" index="0" speed="13.89" length="1.96" shape="-1.23,2.20 -1.32,1.62 -1.37,1.23 -1.44,0.84 -1.58,0.27"/>
    </edge>
    <edge id=":khanjyan_1-_2" function="internal">
        <lane id=":khanjyan_1-_2_0" index="0" speed="13.89" length="4.38" shape="-1.23,2.20 -1.44,0.92 -1.52,0.03 -1.45,-0.86 -1.24,-2.14"/>
    </edge>
    <edge id=":khanjyan_1-_3" function="internal">
        <lane id=":khanjyan_1-_3_0" index="0" speed="3.51" length="2.74" shape="-0.48,-1.55 -1.17,1.10"/>
    </edge>
    <edge id=":khanjyan_1-_4" function="internal">
        <lane id=":khanjyan_1-_4_0" index="0" speed="3.51" length="2.13" shape="-0.48,-1.55 -1.58,0.27"/>
    </edge>
    <edge id=":khanjyan_1-_5" function="internal">
        <lane id=":khanjyan_1-_5_0" index="0" speed="13.89" length="0.96" shape="-0.48,-1.55 -1.24,-2.14"/>
    </edge>
    <edge id=":khanjyan_1-_6" function="internal">
        <lane id=":khanjyan_1-_6_0" index="0" speed="3.77" length="1.55" shape="-1.57,-0.40 -1.17,1.10"/>
    </edge>
    <edge id=":khanjyan_1-_7" function="internal">
        <lane id=":khanjyan_1-_7_0" index="0" speed="13.89" length="0.67" shape="-1.57,-0.40 -1.58,0.27"/>
    </edge>
    <edge id=":khanjyan_1-_8" function="internal">
        <lane id=":khanjyan_1-_8_0" index="0" speed="13.89" length="1.79" shape="-1.57,-0.40 -1.38,-0.88 -1.32,-1.24 -1.30,-1.61 -1.24,-2.14"/>
    </edge>
    <edge id=":koryun_1_0" function="internal">
        <lane id=":koryun_1_0_0" index="0" speed="3.42" length="2.99" shape="0.88,2.12 1.37,-0.82"/>
    </edge>
    <edge id=":koryun_1_1" function="internal">
        <lane id=":koryun_1_1_0" index="0" speed="3.84" length="1.54" shape="0.88,2.12 1.62,0.77"/>
    </edge>
    <edge id=":koryun_1_2" function="internal">
        <lane id=":koryun_1_2_0" index="0" speed="5.53" length="3.52" shape="0.51,2.59 1.37,-0.82"/>
    </edge>
    <edge id=":koryun_1_3" function="internal">
        <lane id=":koryun_1_3_0" index="0" speed="8.75" length="2.13" shape="0.51,2.59 1.62,0.77"/>
    </edge>
    <edge id=":koryun_1-_0" function="internal">
        <lane id=":koryun_1-_0_0" index="0" speed="6.97" length="3.52" shape="-2.85,-1.95 -1.93,1.45"/>
    </edge>
    <edge id=":koryun_1-_1" function="internal">
        <lane id=":koryun_1-_1_0" index="0" speed="5.56" length="3.42" shape="-2.85,-1.95 -2.55,1.46"/>
    </edge>
    <edge id=":koryun_1-_2" function="internal">
        <lane id=":koryun_1-_2_0" index="0" speed="3.46" length="3.00" shape="-2.85,-1.95 -2.94,-2.39 -2.58,-2.53 -1.77,-2.38 -0.51,-1.92"/>
    </edge>
    <edge id=":koryun_1-_3" function="internal">
        <lane id=":koryun_1-_3_0" index="0" speed="4.87" length="4.08" shape="0.84,-1.54 -1.93,1.45"/>
    </edge>
    <edge id=":koryun_1-_4" function="internal">
        <lane id=":koryun_1-_4_0" index="0" speed="5.69" length="4.52" shape="0.84,-1.54 -2.55,1.46"/>
    </edge>
    <edge id=":koryun_1-_5" function="internal">
        <lane id=":koryun_1-_5_0" index="0" speed="11.09" length="1.40" shape="0.84,-1.54 -0.51,-1.92"/>
    </edge>
    <edge id=":koryun_1-_6" function="internal">
        <lane id=":koryun_1-_6_0" index="0" speed="5.32" length="1.82" shape="-2.07,-0.37 -1.93,1.45"/>
    </edge>
    <edge id=":koryun_1-_7" function="internal">
        <lane id=":koryun_1-_7_0" index="0" speed="8.61" length="1.88" shape="-2.07,-0.37 -2.55,1.46"/>
    </edge>
    <edge id=":koryun_1-_8" function="internal">
        <lane id=":koryun_1-_8_0" index="0" speed="4.41" length="2.20" shape="-2.07,-0.37 -0.51,-1.92"/>
    </edge>
    <edge id=":koryun_2_0" function="internal">
        <lane id=":koryun_2_0_0" index="0" speed="3.46" length="2.89" shape="-0.67,1.47 1.63,-0.27"/>
    </edge>
    <edge id=":koryun_2_1" function="internal">
        <lane id=":koryun_2_1_0" index="0" speed="3.92" length="1.17" shape="-0.67,1.47 -1.27,2.47"/>
    </edge>
    <edge id=":koryun_2_2" function="internal">
        <lane id=":koryun_2_2_0" index="0" speed="13.89" length="0.59" shape="-0.67,1.47 -0.10,1.61"/>
    </edge>
    <edge id=":koryun_2_3" function="internal">
        <lane id=":koryun_2_3_0" index="0" speed="3.26" length="1.18" shape="1.46,0.90 1.63,-0.27"/>
    </edge>
    <edge id=":koryun_2_4" function="internal">
        <lane id=":koryun_2_4_0" index="0" speed="13.89" length="3.16" shape="1.46,0.90 0.72,1.46 0.16,1.79 -0.42,2.06 -1.27,2.47"/>
    </edge>
    <edge id=":koryun_2_5" function="internal">
        <lane id=":koryun_2_5_0" index="0" speed="4.80" length="1.80" shape="1.46,0.90 1.06,1.25 0.75,1.49 0.41,1.62 -0.10,1.61"/>
    </edge>
    <edge id=":koryun_2-_0" function="internal">
        <lane id=":koryun_2-_0_0" index="0" speed="8.47" length="2.88" shape="-2.80,-2.24 -1.62,0.39"/>
    </edge>
    <edge id=":koryun_2-_1" function="internal">
        <lane id=":koryun_2-_1_0" index="0" speed="3.89" length="2.08" shape="-2.80,-2.24 -2.22,-0.24"/>
    </edge>
    <edge id=":koryun_2-_2" function="internal">
        <lane id=":koryun_2-_2_0" index="0" speed="13.89" length="0.49" shape="-2.80,-2.24 -2.88,-2.43 -2.91,-2.57 -2.89,-2.63 -2.82,-2.64"/>
    </edge>
    <edge id=":koryun_2-_3" function="internal">
        <lane id=":koryun_2-_3_0" index="0" speed="5.48" length="3.56" shape="0.82,-2.21 -1.62,0.39"/>
    </edge>
    <edge id=":koryun_2-_4" function="internal">
        <lane id=":koryun_2-_4_0" index="0" speed="13.89" length="3.62" shape="0.82,-2.21 -2.22,-0.24"/>
    </edge>
    <edge id=":koryun_2-_5" function="internal">
        <lane id=":koryun_2-_5_0" index="0" speed="6.41" length="3.66" shape="0.82,-2.21 -2.82,-2.64"/>
    </edge>
    <edge id=":koryun_2-_6" function="internal">
        <lane id=":koryun_2-_6_0" index="0" speed="4.23" length="3.27" shape="1.05,-1.50 -1.62,0.39"/>
    </edge>
    <edge id=":koryun_2-_7" function="internal">
        <lane id=":koryun_2-_7_0" index="0" speed="6.55" length="3.51" shape="1.05,-1.50 -2.22,-0.24"/>
    </edge>
    <edge id=":koryun_2-_8" function="internal">
        <lane id=":koryun_2-_8_0" index="0" speed="13.89" length="4.04" shape="1.05,-1.50 -2.82,-2.64"/>
    </edge>
    <edge id=":koryun_3_0" function="internal">
        <lane id=":koryun_3_0_0" index="0" speed="13.89" length="1.82" shape="-1.76,1.21 0.01,1.62"/>
    </edge>
    <edge id=":koryun_3_1" function="internal">
        <lane id=":koryun_3_1_0" index="0" speed="6.30" length="1.74" shape="-1.44,2.57 0.01,1.62"/>
    </edge>
    <edge id=":koryun_3-_0" function="internal">
        <lane id=":koryun_3-_0_0" index="0" speed="5.34" length="4.06" shape="2.16,-1.48 -1.68,-0.16"/>
    </edge>
    <edge id=":koryun_3-_1" function="internal">
        <lane id=":koryun_3-_1_0" index="0" speed="6.15" length="1.65" shape="2.16,-1.48 0.64,-2.12"/>
    </edge>
    <edge id=":koryun_3-_2" function="internal">
        <lane id=":koryun_3-_2_0" index="0" speed="13.89" length="3.04" shape="2.16,-1.48 -0.86,-1.90"/>
    </edge>
    <edge id=":mesrop_mashtoc_1_0" function="internal">
        <lane id=":mesrop_mashtoc_1_0_0" index="0" speed="13.89" length="0.86" shape="-0.19,1.61 0.66,1.76"/>
    </edge>
    <edge id=":mesrop_mashtoc_1_1" function="internal">
        <lane id=":mesrop_mashtoc_1_1_0" index="0" speed="4.78" length="1.24" shape="-0.19,1.61 -0.54,1.56 -0.77,1.46 -0.98,1.30 -1.25,1.05"/>
    </edge>
    <edge id=":mesrop_mashtoc_1-_0" function="internal">
        <lane id=":mesrop_mashtoc_1-_0_0" index="0" speed="2.82" length="1.10" shape="1.97,-0.39 1.96,-1.49"/>
    </edge>
    <edge id=":mesrop_mashtoc_1-_1" function="internal">
        <lane id=":mesrop_mashtoc_1-_1_0" index="0" speed="13.89" length="0.88" shape="1.17,-1.09 1.96,-1.49"/>
    </edge>
    <edge id=":mesrop_mashtoc_2_0" function="internal">
        <lane id=":mesrop_mashtoc_2_0_0" index="0" speed="8.85" length="2.96" shape="-1.41,0.93 -2.12,0.56 -2.72,0.61 -3.38,0.78 -4.25,0.76"/>
    </edge>
    <edge id=":mesrop_mashtoc_2_1" function="internal">
        <lane id=":mesrop_mashtoc_2_1_0" index="0" speed="13.89" length="1.12" shape="-1.41,0.93 -2.26,0.20"/>
    </edge>
    <edge id=":mesrop_mashtoc_2_2" function="internal">
        <lane id=":mesrop_mashtoc_2_2_0" index="0" speed="3.88" length="3.09" shape="-1.41,0.93 -4.49,1.13"/>
    </edge>
    <edge id=":mesrop_mashtoc_2_3" function="internal">
        <lane id=":mesrop_mashtoc_2_3_0" index="0" speed="13.89" length="4.83" shape="0.47,1.61 -0.95,1.57 -1.91,1.39 -2.86,1.10 -4.25,0.76"/>
    </edge>
    <edge id=":mesrop_mashtoc_2_4" function="internal">
        <lane id=":mesrop_mashtoc_2_4_0" index="0" speed="6.51" length="3.20" shape="0.47,1.61 -0.44,1.54 -1.03,1.29 -1.55,0.84 -2.26,0.20"/>
    </edge>
    <edge id=":mesrop_mashtoc_2_5" function="internal">
        <lane id=":mesrop_mashtoc_2_5_0" index="0" speed="4.12" length="5.27" shape="0.47,1.61 -2.04,1.62 -3.70,1.55 -4.52,1.38 -4.49,1.13"/>
    </edge>
    <edge id=":mesrop_mashtoc_2-_0" function="internal">
        <lane id=":mesrop_mashtoc_2-_0_0" index="0" speed="13.89" length="3.53" shape="3.70,1.07 1.02,-1.22"/>
    </edge>
    <edge id=":mesrop_mashtoc_2-_1" function="internal">
        <lane id=":mesrop_mashtoc_2-_1_0" index="0" speed="2.88" length="1.20" shape="3.70,1.07 3.81,-0.13"/>
    </edge>
    <edge id=":mesrop_mashtoc_2-_2" function="internal">
        <lane id=":mesrop_mashtoc_2-_2_0" index="0" speed="6.01" length="1.46" shape="2.48,-1.18 1.02,-1.22"/>
    </edge>
    <edge id=":mesrop_mashtoc_2-_3" function="internal">
        <lane id=":mesrop_mashtoc_2-_3_0" index="0" speed="3.22" length="2.43" shape="2.48,-1.18 3.51,-0.94 4.07,-0.69 4.18,-0.42 3.81,-0.13"/>
    </edge>
    <edge id=":mesrop_mashtoc_3_0" function="internal">
        <lane id=":mesrop_mashtoc_3_0_0" index="0" speed="5.27" length="2.59" shape="-2.41,0.07 -0.41,1.71"/>
    </edge>
    <edge id=":mesrop_mashtoc_3_1" function="internal">
        <lane id=":mesrop_mashtoc_3_1_0" index="0" speed="13.89" length="1.10" shape="-2.41,0.07 -1.57,0.78"/>
    </edge>
    <edge id=":mesrop_mashtoc_3_2" function="internal">
        <lane id=":mesrop_mashtoc_3_2_0" index="0" speed="13.89" length="0.96" shape="-2.41,0.07 -1.68,0.69"/>
    </edge>
    <edge id=":mesrop_mashtoc_3_3" function="internal">
        <lane id=":mesrop_mashtoc_3_3_0" index="0" speed="3.40" length="2.86" shape="-1.20,-1.04 -0.41,1.71"/>
    </edge>
    <edge id=":mesrop_mashtoc_3_4" function="internal">
        <lane id=":mesrop_mashtoc_3_4_0" index="0" speed="3.48" length="1.86" shape="-1.20,-1.04 -1.57,0.78"/>
    </edge>
    <edge id=":mesrop_mashtoc_3_5" function="internal">
        <lane id=":mesrop_mashtoc_3_5_0" index="0" speed="5.72" length="1.79" shape="-1.20,-1.04 -1.68,0.69"/>
    </edge>
    <edge id=":mesrop_mashtoc_3-_0" function="internal">
        <lane id=":mesrop_mashtoc_3-_0_0" index="0" speed="3.84" length="2.57" shape="1.64,-0.22 -0.51,-1.62"/>
    </edge>
    <edge id=":mesrop_mashtoc_3-_1" function="internal">
        <lane id=":mesrop_mashtoc_3-_1_0" index="0" speed="4.63" length="2.23" shape="1.64,-0.22 3.55,0.94"/>
    </edge>
    <edge id=":mesrop_mashtoc_3-_2" function="internal">
        <lane id=":mesrop_mashtoc_3-_2_0" index="0" speed="13.89" length="0.99" shape="0.47,-1.67 -0.51,-1.62"/>
    </edge>
    <edge id=":mesrop_mashtoc_3-_3" function="internal">
        <lane id=":mesrop_mashtoc_3-_3_0" index="0" speed="13.89" length="4.03" shape="0.47,-1.67 3.55,0.94"/>
    </edge>
    <edge id=":mesrop_mashtoc_3-_4" function="internal">
        <lane id=":mesrop_mashtoc_3-_4_0" index="0" speed="13.89" length="0.79" shape="-1.28,-1.48 -1.05,-1.52 -0.90,-1.57 -0.74,-1.61 -0.51,-1.62"/>
    </edge>
    <edge id=":mesrop_mashtoc_3-_5" function="internal">
        <lane id=":mesrop_mashtoc_3-_5_0" index="0" speed="7.84" length="5.51" shape="-1.28,-1.48 -0.30,-1.39 0.83,-0.95 2.11,-0.18 3.55,0.94"/>
    </edge>
    <edge id=":moskovyan_2_0" function="internal">
        <lane id=":moskovyan_2_0_0" index="0" speed="4.25" length="2.59" shape="-0.31,-1.61 -1.85,0.49"/>
    </edge>
    <edge id=":moskovyan_2_1" function="internal">
        <lane id=":moskovyan_2_1_0" index="0" speed="13.89" length="2.23" shape="-0.31,-1.61 0.34,-1.60 0.79,-1.65 1.24,-1.76 1.89,-1.87"/>
    </edge>
    <edge id=":moskovyan_2_2" function="internal">
        <lane id=":moskovyan_2_2_0" index="0" speed="8.20" length="2.60" shape="-0.31,-1.61 -2.68,-0.53"/>
    </edge>
    <edge id=":moskovyan_2_3" function="internal">
        <lane id=":moskovyan_2_3_0" index="0" speed="4.09" length="1.84" shape="-2.64,-1.17 -1.85,0.49"/>
    </edge>
    <edge id=":moskovyan_2_4" function="internal">
        <lane id=":moskovyan_2_4_0" index="0" speed="13.89" length="4.59" shape="-2.64,-1.17 1.89,-1.87"/>
    </edge>
    <edge id=":moskovyan_2_5" function="internal">
        <lane id=":moskovyan_2_5_0" index="0" speed="13.89" length="0.65" shape="-2.64,-1.17 -2.68,-0.53"/>
    </edge>
    <edge id=":moskovyan_2_6" function="internal">
        <lane id=":moskovyan_2_6_0" index="0" speed="6.36" length="2.54" shape="-4.33,1.01 -1.85,0.49"/>
    </edge>
    <edge id=":moskovyan_2_7" function="internal">
        <lane id=":moskovyan_2_7_0" index="0" speed="13.89" length="6.97" shape="-4.33,1.01 -2.64,-0.18 -1.43,-0.97 -0.11,-1.49 1.89,-1.87"/>
    </edge>
    <edge id=":moskovyan_2_8" function="internal">
        <lane id=":moskovyan_2_8_0" index="0" speed="13.89" length="2.28" shape="-4.33,1.01 -3.82,0.57 -3.54,0.18 -3.24,-0.18 -2.68,-0.53"/>
    </edge>
    <edge id=":moskovyan_3_0" function="internal">
        <lane id=":moskovyan_3_0_0" index="0" speed="3.51" length="2.56" shape="0.36,-1.55 -1.64,0.05"/>
    </edge>
    <edge id=":moskovyan_3_1" function="internal">
        <lane id=":moskovyan_3_1_0" index="0" speed="4.11" length="1.59" shape="0.36,-1.55 -1.16,-1.09"/>
    </edge>
    <edge id=":moskovyan_3_2" function="internal">
        <lane id=":moskovyan_3_2_0" index="0" speed="11.98" length="3.96" shape="0.36,-1.55 1.48,-1.46 2.24,-1.71 3.00,-2.11 4.12,-2.48"/>
    </edge>
    <edge id=":moskovyan_3_3" function="internal">
        <lane id=":moskovyan_3_3_0" index="0" speed="3.10" length="1.08" shape="-2.50,-0.61 -1.64,0.05"/>
    </edge>
    <edge id=":moskovyan_3_4" function="internal">
        <lane id=":moskovyan_3_4_0" index="0" speed="11.17" length="1.42" shape="-2.50,-0.61 -1.16,-1.09"/>
    </edge>
    <edge id=":moskovyan_3_5" function="internal">
        <lane id=":moskovyan_3_5_0" index="0" speed="13.89" length="6.91" shape="-2.50,-0.61 -0.61,-1.40 0.73,-1.81 2.11,-2.09 4.12,-2.48"/>
    </edge>
    <edge id=":moskovyan_3_6" function="internal">
        <lane id=":moskovyan_3_6_0" index="0" speed="5.28" length="2.27" shape="-2.97,1.89 -1.64,0.05"/>
    </edge>
    <edge id=":moskovyan_3_7" function="internal">
        <lane id=":moskovyan_3_7_0" index="0" speed="13.89" length="3.52" shape="-2.97,1.89 -2.49,0.96 -2.21,0.29 -1.85,-0.33 -1.16,-1.09"/>
    </edge>
    <edge id=":moskovyan_3_8" function="internal">
        <lane id=":moskovyan_3_8_0" index="0" speed="9.35" length="8.57" shape="-2.97,1.89 -1.79,0.38 -0.22,-0.85 1.76,-1.81 4.12,-2.48"/>
    </edge>
    <edge id=":moskovyan_4_0" function="internal">
        <lane id=":moskovyan_4_0_0" index="0" speed="4.24" length="2.03" shape="-1.01,-1.22 -1.44,0.76"/>
    </edge>
    <edge id=":moskovyan_4_1" function="internal">
        <lane id=":moskovyan_4_1_0" index="0" speed="8.00" length="1.20" shape="-1.01,-1.22 -1.66,-0.22"/>
    </edge>
    <edge id=":moskovyan_4_2" function="internal">
        <lane id=":moskovyan_4_2_0" index="0" speed="13.89" length="0.24" shape="-1.01,-1.22 -0.96,-1.27 -0.92,-1.30 -0.88,-1.32 -0.81,-1.36"/>
    </edge>
    <edge id=":moskovyan_4_3" function="internal">
        <lane id=":moskovyan_4_3_0" index="0" speed="13.89" length="0.93" shape="-2.23,1.27 -1.44,0.76"/>
    </edge>
    <edge id=":moskovyan_4_4" function="internal">
        <lane id=":moskovyan_4_4_0" index="0" speed="13.89" length="1.59" shape="-2.23,1.27 -1.66,-0.22"/>
    </edge>
    <edge id=":moskovyan_4_5" function="internal">
        <lane id=":moskovyan_4_5_0" index="0" speed="7.42" length="3.08" shape="-2.23,1.27 -1.95,0.39 -1.78,-0.26 -1.48,-0.80 -0.81,-1.36"/>
    </edge>
    <edge id=":nalbandyan_1_0" function="internal">
        <lane id=":nalbandyan_1_0_0" index="0" speed="2.85" length="1.28" shape="-1.89,1.26 -0.94,2.13"/>
    </edge>
    <edge id=":nalbandyan_1_1" function="internal">