<?xml version='1.0' encoding='utf-8'?>
<routes><vType id="car" accel="2.6" decel="4.5" sigma="0.5" length="5" maxSpeed="13.89" guiShape="passenger" /><vehicle id="veh0" type="car" depart="0"><route edges="mesrop_mashtoc_1_to_junction_3 junction_3_to_isahakyan_4" /></vehicle><vehicle id="veh1" type="car" depart="5"><route edges="mesrop_mashtoc_1_to_junction_3 junction_3_to_mesrop_mashtoc_2" /></vehicle><vehicle id="veh2" type="car" depart="10"><route edges="mesrop_mashtoc_2_to_junction_2 junction_2_to_moskovyan_1-" /></vehicle><vehicle id="veh3" type="car" depart="15"><route edges="mesrop_mashtoc_2_to_junction_2 junction_2_to_mesrop_mashtoc_3" /></vehicle><vehicle id="veh4" type="car" depart="20"><route edges="mesrop_mashtoc_3_to_junction_1 junction_1_to_mesrop_mashtoc_4" /></vehicle><vehicle id="veh5" type="car" depart="25"><route edges="mesrop_mashtoc_3_to_junction_1 junction_1_to_baghramyan_1" /></vehicle><vehicle id="veh6" type="car" depart="30"><route edges="baghramyan_1-_to_junction_1 junction_1_to_mesrop_mashtoc_4" /></vehicle><vehicle id="veh7" type="car" depart="35"><route edges="mesrop_mashtoc_4-_to_junction_1 junction_1_to_mesrop_mashtoc_3-" /></vehicle><vehicle id="veh8" type="car" depart="40"><route edges="mesrop_mashtoc_4-_to_junction_1 junction_1_to_sayat_nova_6-" /></vehicle><vehicle id="veh9" type="car" depart="45"><route edges="mesrop_mashtoc_2_to_junction_2 junction_2_to_moskovyan_2" /></vehicle><vehicle id="veh10" type="car" depart="50"><route edges="mesrop_mashtoc_3_to_junction_1 junction_1_to_sayat_nova_6-" /></vehicle><vehicle id="veh11" type="car" depart="55"><route edges="baghramyan_1-_to_junction_1 junction_1_to_sayat_nova_6-" /></vehicle><vehicle id="veh12" type="car" depart="60"><route edges="baghramyan_1-_to_junction_1 junction_1_to_mesrop_mashtoc_3-" /></vehicle><vehicle id="veh13" type="car" depart="65"><route edges="mesrop_mashtoc_4-_to_junction_1 junction_1_to_baghramyan_1" /></vehicle><vehicle id="veh14" type="car" depart="70"><route edges="moskovyan_1_to_junction_2 junction_2_to_mesrop_mashtoc_3" /></vehicle><vehicle id="veh15" type="car" depart="75"><route edges="moskovyan_1_to_junction_2 junction_2_to_moskovyan_2" /></vehicle><vehicle id="veh16" type="car" depart="80"><route edges="moskovyan_1_to_junction_2 junction_2_to_mesrop_mashtoc_2-" /></vehicle><vehicle id="veh17" type="car" depart="85"><route edges="mesrop_mashtoc_3-_to_junction_2 junction_2_to_mesrop_mashtoc_2-" /></vehicle><vehicle id="veh18" type="car" depart="90"><route edges="mesrop_mashtoc_3-_to_junction_2 junction_2_to_moskovyan_2" /></vehicle><vehicle id="veh19" type="car" depart="95"><route edges="mesrop_mashtoc_2-_to_junction_3 junction_3_to_mesrop_mashtoc_1-" /></vehicle><vehicle id="veh20" type="car" depart="100"><route edges="mesrop_mashtoc_2-_to_junction_3 junction_3_to_isahakyan_4" /></vehicle><vehicle id="veh21" type="car" depart="105"><route edges="mesrop_mashtoc_1-_to_junction_4 junction_4_to_koryun_3-" /></vehicle><vehicle id="veh22" type="car" depart="110"><route edges="koryun_3_to_junction_4 junction_4_to_mesrop_mashtoc_1" /></vehicle><vehicle id="veh23" type="car" depart="115"><route edges="sayat_nova_6_to_junction_1 junction_1_to_baghramyan_1" /></vehicle><vehicle id="veh24" type="car" depart="120"><route edges="sayat_nova_6_to_junction_1 junction_1_to_mesrop_mashtoc_4" /></vehicle><vehicle id="veh25" type="car" depart="125"><route edges="sayat_nova_6_to_junction_1 junction_1_to_mesrop_mashtoc_3-" /></vehicle><vehicle id="veh26" type="car" depart="130"><route edges="moskovyan_2_to_junction_7 junction_7_to_moskovyan_3" /></vehicle><vehicle id="veh27" type="car" depart="135"><route edges="moskovyan_2_to_junction_7 junction_7_to_teryan_4" /></vehicle><vehicle id="veh28" type="car" depart="140"><route edges="moskovyan_2_to_junction_7 junction_7_to_teryan_3-" /></vehicle><vehicle id="veh29" type="car" depart="145"><route edges="teryan_4_to_junction_8 junction_8_to_teryan_5" /></vehicle><vehicle id="veh30" type="car" depart="150"><route edges="teryan_4_to_junction_8 junction_8_to_sayat_nova_6" /></vehicle><vehicle id="veh31" type="car" depart="155"><route edges="sayat_nova_6-_to_junction_8 junction_8_to_sayat_nova_5-" /></vehicle><vehicle id="veh32" type="car" depart="160"><route edges="sayat_nova_6-_to_junction_8 junction_8_to_teryan_5" /></vehicle><vehicle id="veh33" type="car" depart="165"><route edges="sayat_nova_6-_to_junction_8 junction_8_to_teryan_4-" /></vehicle><vehicle id="veh34" type="car" depart="170"><route edges="teryan_5-_to_junction_8 junction_8_to_teryan_4-" /></vehicle><vehicle id="veh35" type="car" depart="175"><route edges="teryan_5-_to_junction_8 junction_8_to_sayat_nova_5-" /></vehicle><vehicle id="veh36" type="car" depart="180"><route edges="sayat_nova_5_to_junction_8 junction_8_to_teryan_4-" /></vehicle><vehicle id="veh37" type="car" depart="185"><route edges="sayat_nova_5_to_junction_8 junction_8_to_sayat_nova_6" /></vehicle><vehicle id="veh38" type="car" depart="190"><route edges="sayat_nova_5_to_junction_8 junction_8_to_teryan_5" /></vehicle><vehicle id="veh39" type="car" depart="195"><route edges="sayat_nova_5-_to_junction_9 junction_9_to_abovyan_5" /></vehicle><vehicle id="veh40" type="car" depart="200"><route edges="sayat_nova_5-_to_junction_9 junction_9_to_sayat_nova_4-" /></vehicle><vehicle id="veh41" type="car" depart="205"><route edges="teryan_4-_to_junction_7 junction_7_to_moskovyan_3" /></vehicle><vehicle id="veh42" type="car" depart="210"><route edges="teryan_4-_to_junction_7 junction_7_to_teryan_3-" /></vehicle><vehicle id="veh43" type="car" depart="215"><route edges="sayat_nova_4_to_junction_9 junction_9_to_sayat_nova_5-" /></vehicle><vehicle id="veh44" type="car" depart="220"><route edges="sayat_nova_4_to_junction_9 junction_9_to_abovyan_5" /></vehicle><vehicle id="veh45" type="car" depart="225"><route edges="abovyan_4_to_junction_9 junction_9_to_abovyan_5" /></vehicle><vehicle id="veh46" type="car" depart="230"><route edges="abovyan_4_to_junction_9 junction_9_to_sayat_nova_5" /></vehicle><vehicle id="veh47" type="car" depart="235"><route edges="abovyan_4_to_junction_9 junction_9_to_sayat_nova_4-" /></vehicle><vehicle id="veh48" type="car" depart="240"><route edges="isahakyan_3_to_junction_3 junction_3_to_mesrop_mashtoc_2" /></vehicle><vehicle id="veh49" type="car" depart="245"><route edges="isahakyan_3_to_junction_3 junction_3_to_isahakyan_4" /></vehicle><vehicle id="veh50" type="car" depart="250"><route edges="isahakyan_3_to_junction_3 junction_3_to_mesrop_mashtoc_1-" /></vehicle><vehicle id="veh51" type="car" depart="255"><route edges="teryan_3_to_junction_7 junction_7_to_teryan_4" /></vehicle><vehicle id="veh52" type="car" depart="260"><route edges="teryan_3_to_junction_7 junction_7_to_moskovyan_3" /></vehicle><vehicle id="veh53" type="car" depart="265"><route edges="teryan_3-_to_junction_6 junction_6_to_isahakyan_3" /></vehicle><vehicle id="veh54" type="car" depart="270"><route edges="teryan_3-_to_junction_6 junction_6_to_teryan_2-" /></vehicle><vehicle id="veh55" type="car" depart="275"><route edges="moskovyan_3_to_junction_10 junction_10_to_moskovyan_4" /></vehicle><vehicle id="veh56" type="car" depart="280"><route edges="moskovyan_3_to_junction_10 junction_10_to_abovyan_4" /></vehicle><vehicle id="veh57" type="car" depart="285"><route edges="moskovyan_3_to_junction_10 junction_10_to_abovyan_3-" /></vehicle><vehicle id="veh58" type="car" depart="290"><route edges="isahakyan_2_to_junction_6 junction_6_to_isahakyan_3" /></vehicle><vehicle id="veh59" type="car" depart="295"><route edges="isahakyan_2_to_junction_6 junction_6_to_teryan_3" /></vehicle><vehicle id="veh60" type="car" depart="300"><route edges="isahakyan_2_to_junction_6 junction_6_to_teryan_2-" /></vehicle><vehicle id="veh61" type="car" depart="305"><route edges="abovyan_3_to_junction_10 junction_10_to_abovyan_4" /></vehicle><vehicle id="veh62" type="car" depart="310"><route edges="abovyan_3_to_junction_10 junction_10_to_moskovyan_4" /></vehicle><vehicle id="veh63" type="car" depart="315"><route edges="abovyan_3-_to_junction_11 junction_11_to_abovyan_2-" /></vehicle><vehicle id="veh64" type="car" depart="320"><route edges="koryun_3-_to_junction_5 junction_5_to_koryun_2-" /></vehicle><vehicle id="veh65" type="car" depart="325"><route edges="koryun_3-_to_junction_5 junction_5_to_teryan_2" /></vehicle><vehicle id="veh66" type="car" depart="330"><route edges="koryun_3-_to_junction_5 junction_5_to_teryan_1-" /></vehicle><vehicle id="veh67" type="car" depart="335"><route edges="teryan_2_to_junction_6 junction_6_to_teryan_3" /></vehicle><vehicle id="veh68" type="car" depart="340"><route edges="teryan_2_to_junction_6 junction_6_to_isahakyan_3" /></vehicle><vehicle id="veh69" type="car" depart="345"><route edges="teryan_1_to_junction_5 junction_5_to_teryan_2" /></vehicle><vehicle id="veh70" type="car" depart="350"><route edges="teryan_1_to_junction_5 junction_5_to_koryun_3" /></vehicle><vehicle id="veh71" type="car" depart="355"><route edges="teryan_1_to_junction_5 junction_5_to_koryun_2-" /></vehicle><vehicle id="veh72" type="car" depart="360"><route edges="teryan_2-_to_junction_5 junction_5_to_teryan_1-" /></vehicle><vehicle id="veh73" type="car" depart="365"><route edges="teryan_2-_to_junction_5 junction_5_to_koryun_2-" /></vehicle><vehicle id="veh74" type="car" depart="370"><route edges="koryun_2_to_junction_5 junction_5_to_koryun_3" /></vehicle><vehicle id="veh75" type="car" depart="375"><route edges="koryun_2_to_junction_5 junction_5_to_teryan_1-" /></vehicle><vehicle id="veh76" type="car" depart="380"><route edges="koryun_2_to_junction_5 junction_5_to_teryan_2" /></vehicle><vehicle id="veh77" type="car" depart="385"><route edges="koryun_2-_to_junction_12 junction_12_to_koryun_1-" /></vehicle><vehicle id="veh78" type="car" depart="390"><route edges="koryun_2-_to_junction_12 junction_12_to_abovyan_2" /></vehicle><vehicle id="veh79" type="car" depart="395"><route edges="koryun_2-_to_junction_12 junction_12_to_abovyan_1-" /></vehicle><vehicle id="veh80" type="car" depart="400"><route edges="abovyan_1_to_junction_12 junction_12_to_abovyan_2" /></vehicle><vehicle id="veh81" type="car" depart="405"><route edges="abovyan_1_to_junction_12 junction_12_to_koryun_2" /></vehicle><vehicle id="veh82" type="car" depart="410"><route edges="abovyan_1_to_junction_12 junction_12_to_koryun_1-" /></vehicle><vehicle id="veh83" type="car" depart="415"><route edges="abovyan_2_to_junction_11 junction_11_to_abovyan_3" /></vehicle><vehicle id="veh84" type="car" depart="420"><route edges="abovyan_2_to_junction_11 junction_11_to_isahakyan_2" /></vehicle><vehicle id="veh85" type="car" depart="425"><route edges="abovyan_2-_to_junction_12 junction_12_to_abovyan_1-" /></vehicle><vehicle id="veh86" type="car" depart="430"><route edges="abovyan_2-_to_junction_12 junction_12_to_koryun_1-" /></vehicle><vehicle id="veh87" type="car" depart="435"><route edges="isahakyan_1_to_junction_11 junction_11_to_isahakyan_2" /></vehicle><vehicle id="veh88" type="car" depart="440"><route edges="isahakyan_1_to_junction_11 junction_11_to_abovyan_2-" /></vehicle><vehicle id="veh89" type="car" depart="445"><route edges="isahakyan_1_to_junction_11 junction_11_to_abovyan_3" /></vehicle><vehicle id="veh90" type="car" depart="450"><route edges="koryun_1_to_junction_12 junction_12_to_koryun_2" /></vehicle><vehicle id="veh91" type="car" depart="455"><route edges="koryun_1_to_junction_12 junction_12_to_abovyan_1-" /></vehicle><vehicle id="veh92" type="car" depart="460"><route edges="koryun_1-_to_junction_16 junction_16_to_charents_2-" /></vehicle><vehicle id="veh93" type="car" depart="465"><route edges="koryun_1-_to_junction_16 junction_16_to_nalbandyan_1" /></vehicle><vehicle id="veh94" type="car" depart="470"><route edges="koryun_1-_to_junction_16 junction_16_to_heratsi_2" /></vehicle><vehicle id="veh95" type="car" depart="475"><route edges="moskovyan_4_to_junction_14 junction_14_to_khanjyan_1-" /></vehicle><vehicle id="veh96" type="car" depart="480"><route edges="moskovyan_4_to_junction_14 junction_14_to_nalbandyan_3" /></vehicle><vehicle id="veh97" type="car" depart="485"><route edges="moskovyan_4_to_junction_14 junction_14_to_nalbandyan_2-" /></vehicle><vehicle id="veh98" type="car" depart="490"><route edges="sayat_nova_4-_to_junction_13 junction_13_to_nalbandyan_4" /></vehicle><vehicle id="veh99" type="car" depart="495"><route edges="sayat_nova_4-_to_junction_13 junction_13_to_sayat_nova_3-" /></vehicle><vehicle id="veh100" type="car" depart="500"><route edges="sayat_nova_4-_to_junction_13 junction_13_to_nalbandyan_3-" /></vehicle><vehicle id="veh101" type="car" depart="505"><route edges="nalbandyan_1_to_junction_15 junction_15_to_nalbandyan_2-" /></vehicle><vehicle id="veh102" type="car" depart="510"><route edges="nalbandyan_1_to_junction_15 junction_15_to_isahakyan_1" /></vehicle><vehicle id="veh103" type="car" depart="515"><route edges="nalbandyan_1-_to_junction_16 junction_16_to_heratsi_2" /></vehicle><vehicle id="veh104" type="car" depart="520"><route edges="nalbandyan_1-_to_junction_16 junction_16_to_charents_2-" /></vehicle><vehicle id="veh105" type="car" depart="525"><route edges="nalbandyan_2_to_junction_14 junction_14_to_nalbandyan_3" /></vehicle><vehicle id="veh106" type="car" depart="530"><route edges="nalbandyan_2_to_junction_14 junction_14_to_khanjyan_1-" /></vehicle><vehicle id="veh107" type="car" depart="535"><route edges="nalbandyan_2-_to_junction_15 junction_15_to_isahakyan_1" /></vehicle><vehicle id="veh108" type="car" depart="540"><route edges="nalbandyan_2-_to_junction_15 junction_15_to_nalbandyan_1-" /></vehicle><vehicle id="veh109" type="car" depart="545"><route edges="nalbandyan_3_to_junction_13 junction_13_to_nalbandyan_4" /></vehicle><vehicle id="veh110" type="car" depart="550"><route edges="nalbandyan_3_to_junction_13 junction_13_to_sayat_nova_4" /></vehicle><vehicle id="veh111" type="car" depart="555"><route edges="nalbandyan_3_to_junction_13 junction_13_to_sayat_nova_3-" /></vehicle><vehicle id="veh112" type="car" depart="560"><route edges="nalbandyan_3-_to_junction_14 junction_14_to_nalbandyan_2-" /></vehicle><vehicle id="veh113" type="car" depart="565"><route edges="nalbandyan_3-_to_junction_14 junction_14_to_khanjyan_1-" /></vehicle><vehicle id="veh114" type="car" depart="570"><route edges="nalbandyan_4-_to_junction_13 junction_13_to_nalbandyan_3-" /></vehicle><vehicle id="veh115" type="car" depart="575"><route edges="nalbandyan_4-_to_junction_13 junction_13_to_sayat_nova_3-" /></vehicle><vehicle id="veh116" type="car" depart="580"><route edges="nalbandyan_4-_to_junction_13 junction_13_to_sayat_nova_4" /></vehicle><vehicle id="veh117" type="car" depart="585"><route edges="sayat_nova_3-_to_junction_17 junction_17_to_sayat_nova_2-" /></vehicle><vehicle id="veh118" type="car" depart="590"><route edges="sayat_nova_3-_to_junction_17 junction_17_to_khanjyan_2-" /></vehicle><vehicle id="veh119" type="car" depart="595"><route edges="sayat_nova_3_to_junction_13 junction_13_to_sayat_nova_4" /></vehicle><vehicle id="veh120" type="car" depart="600"><route edges="sayat_nova_3_to_junction_13 junction_13_to_nalbandyan_3-" /></vehicle><vehicle id="veh121" type="car" depart="605"><route edges="khanjyan_1-_to_junction_17 junction_17_to_khanjyan_2-" /></vehicle><vehicle id="veh122" type="car" depart="610"><route edges="khanjyan_1-_to_junction_17 junction_17_to_sayat_nova_3" /></vehicle><vehicle id="veh123" type="car" depart="615"><route edges="khanjyan_1-_to_junction_17 junction_17_to_sayat_nova_2-" /></vehicle><vehicle id="veh124" type="car" depart="620"><route edges="khanjyan_1_to_junction_14 junction_14_to_nalbandyan_2-" /></vehicle><vehicle id="veh125" type="car" depart="625"><route edges="khanjyan_1_to_junction_14 junction_14_to_nalbandyan_3" /></vehicle><vehicle id="veh126" type="car" depart="630"><route edges="heratsi_1-_to_junction_18 junction_18_to_khanjyan_2-" /></vehicle><vehicle id="veh127" type="car" depart="635"><route edges="heratsi_2-_to_junction_16 junction_16_to_koryun_1" /></vehicle><vehicle id="veh128" type="car" depart="640"><route edges="heratsi_2-_to_junction_16 junction_16_to_charents_2-" /></vehicle><vehicle id="veh129" type="car" depart="645"><route edges="sayat_nova_2_to_junction_17 junction_17_to_sayat_nova_3" /></vehicle><vehicle id="veh130" type="car" depart="650"><route edges="sayat_nova_2_to_junction_17 junction_17_to_khanjyan_1" /></vehicle><vehicle id="veh131" type="car" depart="655"><route edges="sayat_nova_2_to_junction_17 junction_17_to_khanjyan_2-" /></vehicle><vehicle id="veh132" type="car" depart="660"><route edges="sayat_nova_2-_to_junction_19 junction_19_to_sayat_nova_1-" /></vehicle><vehicle id="veh133" type="car" depart="665"><route edges="sayat_nova_2-_to_junction_19 junction_19_to_alek_manukyan_1-" /></vehicle><vehicle id="veh134" type="car" depart="670"><route edges="sayat_nova_2-_to_junction_19 junction_19_to_alek_manukyan_2" /></vehicle><vehicle id="veh135" type="car" depart="675"><route edges="sayat_nova_1_to_junction_19 junction_19_to_sayat_nova_2" /></vehicle><vehicle id="veh136" type="car" depart="680"><route edges="sayat_nova_1_to_junction_19 junction_19_to_alek_manukyan_2" /></vehicle><vehicle id="veh137" type="car" depart="685"><route edges="sayat_nova_1_to_junction_19 junction_19_to_alek_manukyan_1-" /></vehicle><vehicle id="veh138" type="car" depart="690"><route edges="sayat_nova_1-_to_junction_20 junction_20_to_charents_1-" /></vehicle><vehicle id="veh139" type="car" depart="695"><route edges="sayat_nova_1-_to_junction_20 junction_20_to_charents_2-" /></vehicle><vehicle id="veh140" type="car" depart="700"><route edges="charents_1_to_junction_20 junction_20_to_charents_2" /></vehicle><vehicle id="veh141" type="car" depart="705"><route edges="charents_1_to_junction_20 junction_20_to_sayat_nova_1" /></vehicle><vehicle id="veh142" type="car" depart="710"><route edges="charents_2_to_junction_16 junction_16_to_koryun_1" /></vehicle><vehicle id="veh143" type="car" depart="715"><route edges="charents_2_to_junction_16 junction_16_to_heratsi_2" /></vehicle><vehicle id="veh144" type="car" depart="720"><route edges="charents_2-_to_junction_20 junction_20_to_charents_1-" /></vehicle><vehicle id="veh145" type="car" depart="725"><route edges="charents_2-_to_junction_20 junction_20_to_sayat_nova_1" /></vehicle><vehicle id="veh146" type="car" depart="730"><route edges="alek_manukyan_2_to_junction_21 junction_21_to_heratsi_2" /></vehicle><vehicle id="veh147" type="car" depart="735"><route edges="alek_manukyan_2_to_junction_15 junction_15_to_isahakyan_1" /></vehicle><vehicle id="veh148" type="car" depart="740"><route edges="alek_manukyan_2_to_junction_21 junction_21_to_charents_2-" /></vehicle><vehicle id="veh149" type="car" depart="745"><route edges="alek_manukyan_1_to_junction_19 junction_19_to_alek_manukyan_2" /></vehicle><vehicle id="veh150" type="car" depart="750"><route edges="alek_manukyan_1_to_junction_19 junction_19_to_sayat_nova_2" /></vehicle><vehicle id="veh151" type="car" depart="755"><route edges="alek_manukyan_1_to_junction_19 junction_19_to_sayat_nova_1-" /></vehicle></routes>