<?xml version='1.0' encoding='utf-8'?>
<routes><vType id="car" accel="2.6" decel="4.5" sigma="0.5" length="5" maxSpeed="13.9" /><trip id="trip_0" type="car" from="mesrop_mashtoc_1_to_isahakyan_4" to="mesrop_mashtoc_1_to_isahakyan_4" depart="0" /><trip id="trip_1" type="car" from="mesrop_mashtoc_1_to_mesrop_mashtoc_2" to="mesrop_mashtoc_1_to_mesrop_mashtoc_2" depart="1" /><trip id="trip_2" type="car" from="mesrop_mashtoc_2_to_moskovyan_1-" to="mesrop_mashtoc_2_to_moskovyan_1-" depart="2" /><trip id="trip_3" type="car" from="mesrop_mashtoc_2_to_mesrop_mashtoc_3" to="mesrop_mashtoc_2_to_mesrop_mashtoc_3" depart="3" /><trip id="trip_4" type="car" from="mesrop_mashtoc_3_to_mesrop_mashtoc_4" to="mesrop_mashtoc_3_to_mesrop_mashtoc_4" depart="4" /><trip id="trip_5" type="car" from="mesrop_mashtoc_3_to_baghramyan_1" to="mesrop_mashtoc_3_to_baghramyan_1" depart="5" /><trip id="trip_6" type="car" from="baghramyan_1-_to_mesrop_mashtoc_4" to="baghramyan_1-_to_mesrop_mashtoc_4" depart="6" /><trip id="trip_7" type="car" from="mesrop_mashtoc_4-_to_mesrop_mashtoc_3-" to="mesrop_mashtoc_4-_to_mesrop_mashtoc_3-" depart="7" /><trip id="trip_8" type="car" from="mesrop_mashtoc_4-_to_sayat_nova_6-" to="mesrop_mashtoc_4-_to_sayat_nova_6-" depart="8" /><trip id="trip_9" type="car" from="mesrop_mashtoc_2_to_moskovyan_2" to="mesrop_mashtoc_2_to_moskovyan_2" depart="9" /><trip id="trip_10" type="car" from="mesrop_mashtoc_3_to_sayat_nova_6-" to="mesrop_mashtoc_3_to_sayat_nova_6-" depart="10" /><trip id="trip_11" type="car" from="baghramyan_1-_to_sayat_nova_6-" to="baghramyan_1-_to_sayat_nova_6-" depart="11" /><trip id="trip_12" type="car" from="baghramyan_1-_to_mesrop_mashtoc_3-" to="baghramyan_1-_to_mesrop_mashtoc_3-" depart="12" /><trip id="trip_13" type="car" from="mesrop_mashtoc_4-_to_baghramyan_1" to="mesrop_mashtoc_4-_to_baghramyan_1" depart="13" /><trip id="trip_14" type="car" from="moskovyan_1_to_mesrop_mashtoc_3" to="moskovyan_1_to_mesrop_mashtoc_3" depart="14" /><trip id="trip_15" type="car" from="moskovyan_1_to_moskovyan_2" to="moskovyan_1_to_moskovyan_2" depart="15" /><trip id="trip_16" type="car" from="moskovyan_1_to_mesrop_mashtoc_2-" to="moskovyan_1_to_mesrop_mashtoc_2-" depart="16" /><trip id="trip_17" type="car" from="mesrop_mashtoc_3-_to_mesrop_mashtoc_2-" to="mesrop_mashtoc_3-_to_mesrop_mashtoc_2-" depart="17" /><trip id="trip_18" type="car" from="mesrop_mashtoc_3-_to_moskovyan_2" to="mesrop_mashtoc_3-_to_moskovyan_2" depart="18" /><trip id="trip_19" type="car" from="mesrop_mashtoc_2-_to_mesrop_mashtoc_1-" to="mesrop_mashtoc_2-_to_mesrop_mashtoc_1-" depart="19" /><trip id="trip_20" type="car" from="mesrop_mashtoc_2-_to_isahakyan_4" to="mesrop_mashtoc_2-_to_isahakyan_4" depart="20" /><trip id="trip_21" type="car" from="mesrop_mashtoc_1-_to_koryun_3-" to="mesrop_mashtoc_1-_to_koryun_3-" depart="21" /><trip id="trip_22" type="car" from="koryun_3_to_mesrop_mashtoc_1" to="koryun_3_to_mesrop_mashtoc_1" depart="22" /><trip id="trip_23" type="car" from="sayat_nova_6_to_baghramyan_1" to="sayat_nova_6_to_baghramyan_1" depart="23" /><trip id="trip_24" type="car" from="sayat_nova_6_to_mesrop_mashtoc_4" to="sayat_nova_6_to_mesrop_mashtoc_4" depart="24" /><trip id="trip_25" type="car" from="sayat_nova_6_to_mesrop_mashtoc_3-" to="sayat_nova_6_to_mesrop_mashtoc_3-" depart="25" /><trip id="trip_26" type="car" from="moskovyan_2_to_moskovyan_3" to="moskovyan_2_to_moskovyan_3" depart="26" /><trip id="trip_27" type="car" from="moskovyan_2_to_teryan_4" to="moskovyan_2_to_teryan_4" depart="27" /><trip id="trip_28" type="car" from="moskovyan_2_to_teryan_3-" to="moskovyan_2_to_teryan_3-" depart="28" /><trip id="trip_29" type="car" from="teryan_4_to_teryan_5" to="teryan_4_to_teryan_5" depart="29" /><trip id="trip_30" type="car" from="teryan_4_to_sayat_nova_6" to="teryan_4_to_sayat_nova_6" depart="30" /><trip id="trip_31" type="car" from="sayat_nova_6-_to_sayat_nova_5-" to="sayat_nova_6-_to_sayat_nova_5-" depart="31" /><trip id="trip_32" type="car" from="sayat_nova_6-_to_teryan_5" to="sayat_nova_6-_to_teryan_5" depart="32" /><trip id="trip_33" type="car" from="sayat_nova_6-_to_teryan_4-" to="sayat_nova_6-_to_teryan_4-" depart="33" /><trip id="trip_34" type="car" from="teryan_5-_to_teryan_4-" to="teryan_5-_to_teryan_4-" depart="34" /><trip id="trip_35" type="car" from="teryan_5-_to_sayat_nova_5-" to="teryan_5-_to_sayat_nova_5-" depart="35" /><trip id="trip_36" type="car" from="sayat_nova_5_to_teryan_4-" to="sayat_nova_5_to_teryan_4-" depart="36" /><trip id="trip_37" type="car" from="sayat_nova_5_to_sayat_nova_6" to="sayat_nova_5_to_sayat_nova_6" depart="37" /><trip id="trip_38" type="car" from="sayat_nova_5_to_teryan_5" to="sayat_nova_5_to_teryan_5" depart="38" /><trip id="trip_39" type="car" from="sayat_nova_5-_to_abovyan_5" to="sayat_nova_5-_to_abovyan_5" depart="39" /><trip id="trip_40" type="car" from="sayat_nova_5-_to_sayat_nova_4-" to="sayat_nova_5-_to_sayat_nova_4-" depart="40" /><trip id="trip_41" type="car" from="teryan_4-_to_moskovyan_3" to="teryan_4-_to_moskovyan_3" depart="41" /><trip id="trip_42" type="car" from="teryan_4-_to_teryan_3-" to="teryan_4-_to_teryan_3-" depart="42" /><trip id="trip_43" type="car" from="sayat_nova_4_to_sayat_nova_5-" to="sayat_nova_4_to_sayat_nova_5-" depart="43" /><trip id="trip_44" type="car" from="sayat_nova_4_to_abovyan_5" to="sayat_nova_4_to_abovyan_5" depart="44" /><trip id="trip_45" type="car" from="abovyan_4_to_abovyan_5" to="abovyan_4_to_abovyan_5" depart="45" /><trip id="trip_46" type="car" from="abovyan_4_to_sayat_nova_5" to="abovyan_4_to_sayat_nova_5" depart="46" /><trip id="trip_47" type="car" from="abovyan_4_to_sayat_nova_4-" to="abovyan_4_to_sayat_nova_4-" depart="47" /><trip id="trip_48" type="car" from="isahakyan_3_to_mesrop_mashtoc_2" to="isahakyan_3_to_mesrop_mashtoc_2" depart="48" /><trip id="trip_49" type="car" from="isahakyan_3_to_isahakyan_4" to="isahakyan_3_to_isahakyan_4" depart="49" /><trip id="trip_50" type="car" from="isahakyan_3_to_mesrop_mashtoc_1-" to="isahakyan_3_to_mesrop_mashtoc_1-" depart="50" /><trip id="trip_51" type="car" from="teryan_3_to_teryan_4" to="teryan_3_to_teryan_4" depart="51" /><trip id="trip_52" type="car" from="teryan_3_to_moskovyan_3" to="teryan_3_to_moskovyan_3" depart="52" /><trip id="trip_53" type="car" from="teryan_3-_to_isahakyan_3" to="teryan_3-_to_isahakyan_3" depart="53" /><trip id="trip_54" type="car" from="teryan_3-_to_teryan_2-" to="teryan_3-_to_teryan_2-" depart="54" /><trip id="trip_55" type="car" from="moskovyan_3_to_moskovyan_4" to="moskovyan_3_to_moskovyan_4" depart="55" /><trip id="trip_56" type="car" from="moskovyan_3_to_abovyan_4" to="moskovyan_3_to_abovyan_4" depart="56" /><trip id="trip_57" type="car" from="moskovyan_3_to_abovyan_3-" to="moskovyan_3_to_abovyan_3-" depart="57" /><trip id="trip_58" type="car" from="isahakyan_2_to_isahakyan_3" to="isahakyan_2_to_isahakyan_3" depart="58" /><trip id="trip_59" type="car" from="isahakyan_2_to_teryan_3" to="isahakyan_2_to_teryan_3" depart="59" /><trip id="trip_60" type="car" from="isahakyan_2_to_teryan_2-" to="isahakyan_2_to_teryan_2-" depart="60" /><trip id="trip_61" type="car" from="abovyan_3_to_abovyan_4" to="abovyan_3_to_abovyan_4" depart="61" /><trip id="trip_62" type="car" from="abovyan_3_to_moskovyan_4" to="abovyan_3_to_moskovyan_4" depart="62" /><trip id="trip_63" type="car" from="abovyan_3-_to_abovyan_2-" to="abovyan_3-_to_abovyan_2-" depart="63" /><trip id="trip_64" type="car" from="koryun_3-_to_koryun_2-" to="koryun_3-_to_koryun_2-" depart="64" /><trip id="trip_65" type="car" from="koryun_3-_to_teryan_2" to="koryun_3-_to_teryan_2" depart="65" /><trip id="trip_66" type="car" from="koryun_3-_to_teryan_1-" to="koryun_3-_to_teryan_1-" depart="66" /><trip id="trip_67" type="car" from="teryan_2_to_teryan_3" to="teryan_2_to_teryan_3" depart="67" /><trip id="trip_68" type="car" from="teryan_2_to_isahakyan_3" to="teryan_2_to_isahakyan_3" depart="68" /><trip id="trip_69" type="car" from="teryan_1_to_teryan_2" to="teryan_1_to_teryan_2" depart="69" /><trip id="trip_70" type="car" from="teryan_1_to_koryun_3" to="teryan_1_to_koryun_3" depart="70" /><trip id="trip_71" type="car" from="teryan_1_to_koryun_2-" to="teryan_1_to_koryun_2-" depart="71" /><trip id="trip_72" type="car" from="teryan_2-_to_teryan_1-" to="teryan_2-_to_teryan_1-" depart="72" /><trip id="trip_73" type="car" from="teryan_2-_to_koryun_2-" to="teryan_2-_to_koryun_2-" depart="73" /><trip id="trip_74" type="car" from="koryun_2_to_koryun_3" to="koryun_2_to_koryun_3" depart="74" /><trip id="trip_75" type="car" from="koryun_2_to_teryan_1-" to="koryun_2_to_teryan_1-" depart="75" /><trip id="trip_76" type="car" from="koryun_2_to_teryan_2" to="koryun_2_to_teryan_2" depart="76" /><trip id="trip_77" type="car" from="koryun_2-_to_koryun_1-" to="koryun_2-_to_koryun_1-" depart="77" /><trip id="trip_78" type="car" from="koryun_2-_to_abovyan_2" to="koryun_2-_to_abovyan_2" depart="78" /><trip id="trip_79" type="car" from="koryun_2-_to_abovyan_1-" to="koryun_2-_to_abovyan_1-" depart="79" /><trip id="trip_80" type="car" from="abovyan_1_to_abovyan_2" to="abovyan_1_to_abovyan_2" depart="80" /><trip id="trip_81" type="car" from="abovyan_1_to_koryun_2" to="abovyan_1_to_koryun_2" depart="81" /><trip id="trip_82" type="car" from="abovyan_1_to_koryun_1-" to="abovyan_1_to_koryun_1-" depart="82" /><trip id="trip_83" type="car" from="abovyan_2_to_abovyan_3" to="abovyan_2_to_abovyan_3" depart="83" /><trip id="trip_84" type="car" from="abovyan_2_to_isahakyan_2" to="abovyan_2_to_isahakyan_2" depart="84" /><trip id="trip_85" type="car" from="abovyan_2-_to_abovyan_1-" to="abovyan_2-_to_abovyan_1-" depart="85" /><trip id="trip_86" type="car" from="abovyan_2-_to_koryun_1-" to="abovyan_2-_to_koryun_1-" depart="86" /><trip id="trip_87" type="car" from="isahakyan_1_to_isahakyan_2" to="isahakyan_1_to_isahakyan_2" depart="87" /><trip id="trip_88" type="car" from="isahakyan_1_to_abovyan_2-" to="isahakyan_1_to_abovyan_2-" depart="88" /><trip id="trip_89" type="car" from="isahakyan_1_to_abovyan_3" to="isahakyan_1_to_abovyan_3" depart="89" /><trip id="trip_90" type="car" from="koryun_1_to_koryun_2" to="koryun_1_to_koryun_2" depart="90" /><trip id="trip_91" type="car" from="koryun_1_to_abovyan_1-" to="koryun_1_to_abovyan_1-" depart="91" /><trip id="trip_92" type="car" from="koryun_1-_to_charents_2-" to="koryun_1-_to_charents_2-" depart="92" /><trip id="trip_93" type="car" from="koryun_1-_to_nalbandyan_1" to="koryun_1-_to_nalbandyan_1" depart="93" /><trip id="trip_94" type="car" from="koryun_1-_to_heratsi_2" to="koryun_1-_to_heratsi_2" depart="94" /><trip id="trip_95" type="car" from="moskovyan_4_to_khanjyan_1-" to="moskovyan_4_to_khanjyan_1-" depart="95" /><trip id="trip_96" type="car" from="moskovyan_4_to_nalbandyan_3" to="moskovyan_4_to_nalbandyan_3" depart="96" /><trip id="trip_97" type="car" from="moskovyan_4_to_nalbandyan_2-" to="moskovyan_4_to_nalbandyan_2-" depart="97" /><trip id="trip_98" type="car" from="sayat_nova_4-_to_nalbandyan_4" to="sayat_nova_4-_to_nalbandyan_4" depart="98" /><trip id="trip_99" type="car" from="sayat_nova_4-_to_sayat_nova_3-" to="sayat_nova_4-_to_sayat_nova_3-" depart="99" /><trip id="trip_100" type="car" from="sayat_nova_4-_to_nalbandyan_3-" to="sayat_nova_4-_to_nalbandyan_3-" depart="100" /><trip id="trip_101" type="car" from="nalbandyan_1_to_nalbandyan_2-" to="nalbandyan_1_to_nalbandyan_2-" depart="101" /><trip id="trip_102" type="car" from="nalbandyan_1_to_isahakyan_1" to="nalbandyan_1_to_isahakyan_1" depart="102" /><trip id="trip_103" type="car" from="nalbandyan_1-_to_heratsi_2" to="nalbandyan_1-_to_heratsi_2" depart="103" /><trip id="trip_104" type="car" from="nalbandyan_1-_to_charents_2-" to="nalbandyan_1-_to_charents_2-" depart="104" /><trip id="trip_105" type="car" from="nalbandyan_2_to_nalbandyan_3" to="nalbandyan_2_to_nalbandyan_3" depart="105" /><trip id="trip_106" type="car" from="nalbandyan_2_to_khanjyan_1-" to="nalbandyan_2_to_khanjyan_1-" depart="106" /><trip id="trip_107" type="car" from="nalbandyan_2-_to_isahakyan_1" to="nalbandyan_2-_to_isahakyan_1" depart="107" /><trip id="trip_108" type="car" from="nalbandyan_2-_to_nalbandyan_1-" to="nalbandyan_2-_to_nalbandyan_1-" depart="108" /><trip id="trip_109" type="car" from="nalbandyan_3_to_nalbandyan_4" to="nalbandyan_3_to_nalbandyan_4" depart="109" /><trip id="trip_110" type="car" from="nalbandyan_3_to_sayat_nova_4" to="nalbandyan_3_to_sayat_nova_4" depart="110" /><trip id="trip_111" type="car" from="nalbandyan_3_to_sayat_nova_3-" to="nalbandyan_3_to_sayat_nova_3-" depart="111" /><trip id="trip_112" type="car" from="nalbandyan_3-_to_nalbandyan_2-" to="nalbandyan_3-_to_nalbandyan_2-" depart="112" /><trip id="trip_113" type="car" from="nalbandyan_3-_to_khanjyan_1-" to="nalbandyan_3-_to_khanjyan_1-" depart="113" /><trip id="trip_114" type="car" from="nalbandyan_4-_to_nalbandyan_3-" to="nalbandyan_4-_to_nalbandyan_3-" depart="114" /><trip id="trip_115" type="car" from="nalbandyan_4-_to_sayat_nova_3-" to="nalbandyan_4-_to_sayat_nova_3-" depart="115" /><trip id="trip_116" type="car" from="nalbandyan_4-_to_sayat_nova_4" to="nalbandyan_4-_to_sayat_nova_4" depart="116" /><trip id="trip_117" type="car" from="sayat_nova_3-_to_sayat_nova_2-" to="sayat_nova_3-_to_sayat_nova_2-" depart="117" /><trip id="trip_118" type="car" from="sayat_nova_3-_to_khanjyan_2-" to="sayat_nova_3-_to_khanjyan_2-" depart="118" /><trip id="trip_119" type="car" from="sayat_nova_3_to_sayat_nova_4" to="sayat_nova_3_to_sayat_nova_4" depart="119" /><trip id="trip_120" type="car" from="sayat_nova_3_to_nalbandyan_3-" to="sayat_nova_3_to_nalbandyan_3-" depart="120" /><trip id="trip_121" type="car" from="khanjyan_1-_to_khanjyan_2-" to="khanjyan_1-_to_khanjyan_2-" depart="121" /><trip id="trip_122" type="car" from="khanjyan_1-_to_sayat_nova_3" to="khanjyan_1-_to_sayat_nova_3" depart="122" /><trip id="trip_123" type="car" from="khanjyan_1-_to_sayat_nova_2-" to="khanjyan_1-_to_sayat_nova_2-" depart="123" /><trip id="trip_124" type="car" from="khanjyan_1_to_nalbandyan_2-" to="khanjyan_1_to_nalbandyan_2-" depart="124" /><trip id="trip_125" type="car" from="khanjyan_1_to_nalbandyan_3" to="khanjyan_1_to_nalbandyan_3" depart="125" /><trip id="trip_126" type="car" from="heratsi_1_to_heratsi_2" to="heratsi_1_to_heratsi_2" depart="126" /><trip id="trip_127" type="car" from="heratsi_1-_to_khanjyan_2-" to="heratsi_1-_to_khanjyan_2-" depart="127" /><trip id="trip_128" type="car" from="heratsi_1-_to_khanjyan_1" to="heratsi_1-_to_khanjyan_1" depart="128" /><trip id="trip_129" type="car" from="heratsi_2-_to_koryun_1" to="heratsi_2-_to_koryun_1" depart="129" /><trip id="trip_130" type="car" from="heratsi_2-_to_charents_2-" to="heratsi_2-_to_charents_2-" depart="130" /><trip id="trip_131" type="car" from="heratsi_2-_to_heratsi_1-" to="heratsi_2-_to_heratsi_1-" depart="131" /><trip id="trip_132" type="car" from="sayat_nova_2_to_sayat_nova_3" to="sayat_nova_2_to_sayat_nova_3" depart="132" /><trip id="trip_133" type="car" from="sayat_nova_2_to_khanjyan_1" to="sayat_nova_2_to_khanjyan_1" depart="133" /><trip id="trip_134" type="car" from="sayat_nova_2_to_khanjyan_2-" to="sayat_nova_2_to_khanjyan_2-" depart="134" /><trip id="trip_135" type="car" from="sayat_nova_2-_to_sayat_nova_1-" to="sayat_nova_2-_to_sayat_nova_1-" depart="135" /><trip id="trip_136" type="car" from="sayat_nova_2-_to_alek_manukyan_1-" to="sayat_nova_2-_to_alek_manukyan_1-" depart="136" /><trip id="trip_137" type="car" from="sayat_nova_2-_to_alek_manukyan_2" to="sayat_nova_2-_to_alek_manukyan_2" depart="137" /><trip id="trip_138" type="car" from="sayat_nova_1_to_sayat_nova_2" to="sayat_nova_1_to_sayat_nova_2" depart="138" /><trip id="trip_139" type="car" from="sayat_nova_1_to_alek_manukyan_2" to="sayat_nova_1_to_alek_manukyan_2" depart="139" /><trip id="trip_140" type="car" from="sayat_nova_1_to_alek_manukyan_1-" to="sayat_nova_1_to_alek_manukyan_1-" depart="140" /><trip id="trip_141" type="car" from="sayat_nova_1-_to_charents_1-" to="sayat_nova_1-_to_charents_1-" depart="141" /><trip id="trip_142" type="car" from="sayat_nova_1-_to_charents_2-" to="sayat_nova_1-_to_charents_2-" depart="142" /><trip id="trip_143" type="car" from="charents_1_to_charents_2" to="charents_1_to_charents_2" depart="143" /><trip id="trip_144" type="car" from="charents_1_to_sayat_nova_1" to="charents_1_to_sayat_nova_1" depart="144" /><trip id="trip_145" type="car" from="charents_2_to_koryun_1" to="charents_2_to_koryun_1" depart="145" /><trip id="trip_146" type="car" from="charents_2_to_heratsi_2" to="charents_2_to_heratsi_2" depart="146" /><trip id="trip_147" type="car" from="charents_2-_to_charents_1-" to="charents_2-_to_charents_1-" depart="147" /><trip id="trip_148" type="car" from="charents_2-_to_sayat_nova_1" to="charents_2-_to_sayat_nova_1" depart="148" /><trip id="trip_149" type="car" from="alek_manukyan_2_to_heratsi_2" to="alek_manukyan_2_to_heratsi_2" depart="149" /><trip id="trip_150" type="car" from="alek_manukyan_2_to_isahakyan_1" to="alek_manukyan_2_to_isahakyan_1" depart="150" /><trip id="trip_151" type="car" from="alek_manukyan_2_to_charents_2-" to="alek_manukyan_2_to_charents_2-" depart="151" /><trip id="trip_152" type="car" from="alek_manukyan_1_to_alek_manukyan_2" to="alek_manukyan_1_to_alek_manukyan_2" depart="152" /><trip id="trip_153" type="car" from="alek_manukyan_1_to_sayat_nova_2" to="alek_manukyan_1_to_sayat_nova_2" depart="153" /><trip id="trip_154" type="car" from="alek_manukyan_1_to_sayat_nova_1-" to="alek_manukyan_1_to_sayat_nova_1-" depart="154" /></routes>