<?xml version="1.0" encoding="UTF-8"?>

<!-- generated on 2025-04-06 17:03:02 by Eclipse SUMO netconvert Version 1.20.0
<configuration xmlns:xsi="http://www.w3.org/2001/XMLSchema-instance" xsi:noNamespaceSchemaLocation="http://sumo.dlr.de/xsd/netconvertConfiguration.xsd">

    <input>
        <node-files value="nodes.xml"/>
        <edge-files value="edges.xml"/>
    </input>

    <output>
        <output-file value="your_network.net.xml"/>
    </output>

</configuration>
-->

<net version="1.20" junctionCornerDetail="5" limitTurnSpeed="5.50" xmlns:xsi="http://www.w3.org/2001/XMLSchema-instance" xsi:noNamespaceSchemaLocation="http://sumo.dlr.de/xsd/net_file.xsd">

    <location netOffset="-116356.72,-4940253.22" convBoundary="0.00,0.00,1479.95,1572.89" origBoundary="116356.72,4447506.76,459759.52,4941826.11" projParameter="!"/>

    <edge id=":abovyan_2_0" function="internal">
        <lane id=":abovyan_2_0_0" index="0" speed="13.90" length="17.86" shape="1197.61,1009.44 1187.40,994.78"/>
    </edge>
    <edge id=":abovyan_2_1" function="internal">
        <lane id=":abovyan_2_1_0" index="0" speed="13.90" length="17.32" shape="1197.61,1009.44 1195.59,1005.88 1193.98,1001.63 1192.87,997.20 1192.35,993.11"/>
    </edge>
    <edge id=":abovyan_2_2" function="internal">
        <lane id=":abovyan_2_2_0" index="0" speed="10.37" length="3.81" shape="1200.29,1003.09 1197.01,1002.94 1196.53,1002.72"/>
    </edge>
    <edge id=":abovyan_2_3" function="internal">
        <lane id=":abovyan_2_3_0" index="0" speed="7.87" length="3.90" shape="1200.29,1003.09 1197.04,1002.88 1196.52,1002.50"/>
    </edge>
    <edge id=":abovyan_2_4" function="internal">
        <lane id=":abovyan_2_4_0" index="0" speed="10.37" length="12.32" shape="1196.53,1002.72 1193.77,1001.50 1190.57,998.78 1187.40,994.78"/>
    </edge>
    <edge id=":abovyan_2_5" function="internal">
        <lane id=":abovyan_2_5_0" index="0" speed="7.87" length="10.76" shape="1196.52,1002.50 1194.64,1001.14 1193.07,997.89 1192.35,993.11"/>
    </edge>
    <edge id=":abovyan_2-_0" function="internal">
        <lane id=":abovyan_2-_0_0" index="0" speed="13.90" length="18.12" shape="1187.89,1004.76 1197.97,1019.82"/>
    </edge>
    <edge id=":abovyan_2-_1" function="internal">
        <lane id=":abovyan_2-_1_0" index="0" speed="13.90" length="17.72" shape="1187.89,1004.76 1189.83,1008.43 1191.42,1012.83 1192.58,1017.39 1193.23,1021.52"/>
    </edge>
    <edge id=":abovyan_2-_2" function="internal">
        <lane id=":abovyan_2-_2_0" index="0" speed="9.23" length="3.52" shape="1185.59,1011.85 1188.49,1011.57 1189.06,1011.80"/>
    </edge>
    <edge id=":abovyan_2-_3" function="internal">
        <lane id=":abovyan_2-_3_0" index="0" speed="7.44" length="3.57" shape="1185.59,1011.85 1188.47,1011.57 1189.03,1011.95"/>
    </edge>
    <edge id=":abovyan_2-_4" function="internal">
        <lane id=":abovyan_2-_4_0" index="0" speed="9.23" length="12.23" shape="1189.06,1011.80 1191.52,1012.80 1194.68,1015.55 1197.97,1019.82"/>
    </edge>
    <edge id=":abovyan_2-_5" function="internal">
        <lane id=":abovyan_2-_5_0" index="0" speed="7.44" length="10.91" shape="1189.03,1011.95 1190.71,1013.09 1192.29,1016.41 1193.23,1021.52"/>
    </edge>
    <edge id=":abovyan_3_0" function="internal">
        <lane id=":abovyan_3_0_0" index="0" speed="7.90" length="13.60" shape="1113.64,885.93 1111.82,884.51 1109.17,884.39 1105.68,885.55 1101.35,887.99"/>
    </edge>
    <edge id=":abovyan_3_1" function="internal">
        <lane id=":abovyan_3_1_0" index="0" speed="13.90" length="10.66" shape="1113.64,885.93 1107.54,877.19"/>
    </edge>
    <edge id=":abovyan_3_2" function="internal">
        <lane id=":abovyan_3_2_0" index="0" speed="5.46" length="10.10" shape="1105.91,891.45 1106.57,888.21 1106.03,886.55 1104.29,886.48 1101.35,887.99"/>
    </edge>
    <edge id=":abovyan_3_3" function="internal">
        <lane id=":abovyan_3_3_0" index="0" speed="11.15" length="14.63" shape="1105.91,891.45 1107.37,886.23 1108.12,882.11 1108.18,879.10 1107.54,877.19"/>
    </edge>
    <edge id=":abovyan_3-_0" function="internal">
        <lane id=":abovyan_3-_0_0" index="0" speed="4.35" length="1.10" shape="1108.27,885.26 1108.25,885.58 1108.27,885.81 1108.36,886.02 1108.54,886.29"/>
    </edge>
    <edge id=":abovyan_4_0" function="internal">
        <lane id=":abovyan_4_0_0" index="0" speed="11.87" length="11.43" shape="978.48,700.23 976.49,697.70 974.64,696.00 972.41,694.85 969.34,693.98"/>
    </edge>
    <edge id=":abovyan_4_1" function="internal">
        <lane id=":abovyan_4_1_0" index="0" speed="13.90" length="17.11" shape="978.48,700.23 968.64,686.24"/>
    </edge>
    <edge id=":abovyan_4_2" function="internal">
        <lane id=":abovyan_4_2_0" index="0" speed="13.90" length="16.86" shape="978.48,700.23 976.38,696.79 974.57,692.80 973.10,688.65 972.03,684.75"/>
    </edge>
    <edge id=":abovyan_4_3" function="internal">
        <lane id=":abovyan_4_3_0" index="0" speed="13.90" length="11.83" shape="980.79,696.98 969.34,693.98"/>
    </edge>
    <edge id=":abovyan_4_4" function="internal">
        <lane id=":abovyan_4_4_0" index="0" speed="13.90" length="2.43" shape="980.79,696.98 978.61,695.92"/>
    </edge>
    <edge id=":abovyan_4_5" function="internal">
        <lane id=":abovyan_4_5_0" index="0" speed="10.69" length="2.47" shape="980.79,696.98 978.58,695.86"/>
    </edge>
    <edge id=":abovyan_4_6" function="internal">
        <lane id=":abovyan_4_6_0" index="0" speed="13.90" length="14.05" shape="978.61,695.92 977.27,695.27 973.98,692.61 971.06,689.45 968.64,686.24"/>
    </edge>
    <edge id=":abovyan_4_7" function="internal">
        <lane id=":abovyan_4_7_0" index="0" speed="10.69" length="13.26" shape="978.58,695.86 977.84,695.48 975.40,692.95 973.46,689.37 972.03,684.75"/>
    </edge>
    <edge id=":alek_manukyan_2_0" function="internal">
        <lane id=":alek_manukyan_2_0_0" index="0" speed="11.87" length="20.50" shape="707.00,1249.30 713.52,1252.96 718.86,1255.17 723.00,1255.93 725.95,1255.26"/>
    </edge>
    <edge id=":alek_manukyan_2_1" function="internal">
        <lane id=":alek_manukyan_2_1_0" index="0" speed="13.90" length="23.62" shape="707.00,1249.30 711.37,1251.93 717.17,1255.32 723.05,1258.56 727.63,1260.77"/>
    </edge>
    <edge id=":alek_manukyan_2_2" function="internal">
        <lane id=":alek_manukyan_2_2_0" index="0" speed="13.90" length="22.63" shape="707.00,1249.30 713.91,1253.83 719.00,1257.80 722.27,1261.21 723.72,1264.05"/>
    </edge>
    <edge id=":alek_manukyan_2_3" function="internal">
        <lane id=":alek_manukyan_2_3_0" index="0" speed="13.90" length="21.14" shape="705.41,1252.63 712.56,1254.87 718.36,1256.06 722.83,1256.18 725.95,1255.26"/>
    </edge>
    <edge id=":alek_manukyan_2_4" function="internal">
        <lane id=":alek_manukyan_2_4_0" index="0" speed="13.90" length="23.67" shape="705.41,1252.63 727.63,1260.77"/>
    </edge>
    <edge id=":alek_manukyan_2_5" function="internal">
        <lane id=":alek_manukyan_2_5_0" index="0" speed="12.80" length="22.13" shape="705.41,1252.63 713.00,1255.63 718.58,1258.53 722.16,1261.34 723.72,1264.05"/>
    </edge>
    <edge id=":alek_manukyan_2_6" function="internal">
        <lane id=":alek_manukyan_2_6_0" index="0" speed="13.90" length="12.21" shape="715.04,1260.71 718.10,1259.42 720.62,1258.24 723.08,1256.92 725.95,1255.26"/>
    </edge>
    <edge id=":alek_manukyan_2_7" function="internal">
        <lane id=":alek_manukyan_2_7_0" index="0" speed="12.06" length="3.18" shape="715.04,1260.71 718.07,1259.74"/>
    </edge>
    <edge id=":alek_manukyan_2_8" function="internal">
        <lane id=":alek_manukyan_2_8_0" index="0" speed="6.72" length="3.23" shape="715.04,1260.71 718.16,1259.85"/>
    </edge>
    <edge id=":alek_manukyan_2_9" function="internal">
        <lane id=":alek_manukyan_2_9_0" index="0" speed="12.06" length="9.78" shape="718.07,1259.74 718.31,1259.66 721.33,1259.34 724.36,1259.71 727.63,1260.77"/>
    </edge>
    <edge id=":alek_manukyan_2_10" function="internal">
        <lane id=":alek_manukyan_2_10_0" index="0" speed="6.72" length="7.82" shape="718.16,1259.85 718.34,1259.80 720.89,1260.05 722.68,1261.47 723.72,1264.05"/>
    </edge>
    <edge id=":charents_2_0" function="internal">
        <lane id=":charents_2_0_0" index="0" speed="11.52" length="8.75" shape="776.27,1544.39 778.73,1544.03 780.27,1543.19 781.63,1541.88 783.58,1540.13"/>
    </edge>
    <edge id=":charents_2_1" function="internal">
        <lane id=":charents_2_1_0" index="0" speed="13.90" length="8.78" shape="776.27,1544.39 785.02,1543.78"/>
    </edge>
    <edge id=":charents_2-_0" function="internal">
        <lane id=":charents_2-_0_0" index="0" speed="13.90" length="14.73" shape="785.36,1533.72 770.66,1534.64"/>
    </edge>
    <edge id=":charents_2-_1" function="internal">
        <lane id=":charents_2-_1_0" index="0" speed="13.90" length="14.31" shape="785.36,1533.72 781.71,1533.77 778.22,1533.33 774.85,1532.37 771.54,1530.84"/>
    </edge>
    <edge id=":charents_2-_2" function="internal">
        <lane id=":charents_2-_2_0" index="0" speed="13.90" length="26.11" shape="793.42,1522.18 788.93,1525.44 782.46,1529.51 775.78,1533.04 770.66,1534.64"/>
    </edge>
    <edge id=":charents_2-_3" function="internal">
        <lane id=":charents_2-_3_0" index="0" speed="12.23" length="24.61" shape="793.42,1522.18 786.40,1527.38 780.42,1530.56 775.46,1531.71 771.54,1530.84"/>
    </edge>
    <edge id=":charents_2-_4" function="internal">
        <lane id=":charents_2-_4_0" index="0" speed="13.90" length="25.76" shape="790.96,1519.73 785.19,1526.10 779.88,1530.71 775.04,1533.56 770.66,1534.64"/>
    </edge>
    <edge id=":charents_2-_5" function="internal">
        <lane id=":charents_2-_5_0" index="0" speed="11.01" length="23.86" shape="790.96,1519.73 785.10,1526.04 779.91,1530.00 775.39,1531.60 771.54,1530.84"/>
    </edge>
    <edge id=":charents_2-_6" function="internal">
        <lane id=":charents_2-_6_0" index="0" speed="7.34" length="13.19" shape="778.57,1526.74 778.66,1530.03 777.37,1532.44 774.70,1533.98 770.66,1534.64"/>
    </edge>
    <edge id=":charents_2-_7" function="internal">
        <lane id=":charents_2-_7_0" index="0" speed="5.44" length="9.26" shape="778.57,1526.74 778.04,1528.69 776.15,1530.28 773.72,1531.13 771.54,1530.84"/>
    </edge>
    <edge id=":charents_2-_8" function="internal">
        <lane id=":charents_2-_8_0" index="0" speed="6.22" length="3.92" shape="773.10,1528.03 776.33,1530.24"/>
    </edge>
    <edge id=":charents_2-_9" function="internal">
        <lane id=":charents_2-_9_0" index="0" speed="3.66" length="1.45" shape="773.10,1528.03 773.76,1529.32"/>
    </edge>
    <edge id=":charents_2-_10" function="internal">
        <lane id=":charents_2-_10_0" index="0" speed="6.22" length="10.60" shape="776.33,1530.24 776.98,1530.68 777.87,1532.67 775.77,1533.99 770.66,1534.64"/>
    </edge>
    <edge id=":charents_2-_11" function="internal">
        <lane id=":charents_2-_11_0" index="0" speed="3.66" length="3.24" shape="773.76,1529.32 773.73,1530.21 772.99,1530.72 771.54,1530.84"/>
    </edge>
    <edge id=":heratsi_1-_0" function="internal">
        <lane id=":heratsi_1-_0_0" index="0" speed="13.90" length="6.24" shape="811.50,1161.13 809.93,1160.16 808.81,1159.56 807.66,1159.02 805.98,1158.23"/>
    </edge>
    <edge id=":heratsi_1-_1" function="internal">
        <lane id=":heratsi_1-_1_0" index="0" speed="5.75" length="5.31" shape="811.50,1161.13 810.49,1160.25 809.91,1159.18 809.74,1157.91 809.99,1156.46"/>
    </edge>
    <edge id=":isahakyan_1_0" function="internal">
        <lane id=":isahakyan_1_0_0" index="0" speed="13.90" length="32.46" shape="1036.17,1066.77 1043.84,1063.12 1050.06,1058.18 1054.80,1051.96 1058.09,1044.44"/>
    </edge>
    <edge id=":isahakyan_1_1" function="internal">
        <lane id=":isahakyan_1_1_0" index="0" speed="13.90" length="32.92" shape="1036.17,1066.77 1041.76,1063.41 1049.63,1057.32 1057.08,1050.73 1061.38,1045.85"/>
    </edge>
    <edge id=":isahakyan_1_2" function="internal">
        <lane id=":isahakyan_1_2_0" index="0" speed="13.90" length="24.34" shape="1036.17,1066.77 1059.07,1058.53"/>
    </edge>
    <edge id=":isahakyan_1_3" function="internal">
        <lane id=":isahakyan_1_3_0" index="0" speed="13.90" length="32.87" shape="1037.69,1070.00 1042.48,1065.60 1048.94,1058.05 1054.87,1050.09 1058.09,1044.44"/>
    </edge>
    <edge id=":isahakyan_1_4" function="internal">
        <lane id=":isahakyan_1_4_0" index="0" speed="13.90" length="33.92" shape="1037.69,1070.00 1042.86,1065.76 1050.24,1058.61 1057.26,1051.11 1061.38,1045.85"/>
    </edge>
    <edge id=":isahakyan_1_5" function="internal">
        <lane id=":isahakyan_1_5_0" index="0" speed="13.90" length="24.28" shape="1037.69,1070.00 1042.18,1067.37 1048.23,1063.95 1054.35,1060.69 1059.07,1058.53"/>
    </edge>
    <edge id=":isahakyan_1_6" function="internal">
        <lane id=":isahakyan_1_6_0" index="0" speed="13.90" length="23.05" shape="1051.60,1066.56 1058.09,1044.44"/>
    </edge>
    <edge id=":isahakyan_1_7" function="internal">
        <lane id=":isahakyan_1_7_0" index="0" speed="13.90" length="3.69" shape="1051.60,1066.56 1052.83,1063.08"/>
    </edge>
    <edge id=":isahakyan_1_8" function="internal">
        <lane id=":isahakyan_1_8_0" index="0" speed="9.51" length="3.96" shape="1051.60,1066.56 1052.56,1063.90 1053.21,1062.97"/>
    </edge>
    <edge id=":isahakyan_1_9" function="internal">
        <lane id=":isahakyan_1_9_0" index="0" speed="13.90" length="19.25" shape="1052.83,1063.08 1053.25,1061.88 1056.00,1056.02 1058.99,1050.25 1061.38,1045.85"/>
    </edge>
    <edge id=":isahakyan_1_10" function="internal">
        <lane id=":isahakyan_1_10_0" index="0" speed="9.51" length="7.50" shape="1053.21,1062.97 1054.12,1061.67 1056.29,1059.88 1059.07,1058.53"/>
    </edge>
    <edge id=":isahakyan_2_0" function="internal">
        <lane id=":isahakyan_2_0_0" index="0" speed="13.90" length="22.72" shape="1183.61,832.79 1183.54,827.84 1183.66,821.44 1183.89,815.04 1184.13,810.08"/>
    </edge>
    <edge id=":isahakyan_2_1" function="internal">
        <lane id=":isahakyan_2_1_0" index="0" speed="13.90" length="2.76" shape="1183.61,832.79 1183.79,830.03"/>
    </edge>
    <edge id=":isahakyan_2_2" function="internal">
        <lane id=":isahakyan_2_2_0" index="0" speed="7.10" length="2.60" shape="1183.61,832.79 1183.67,830.19"/>
    </edge>
    <edge id=":isahakyan_2_6" function="internal">
        <lane id=":isahakyan_2_6_0" index="0" speed="13.90" length="19.77" shape="1183.79,830.03 1183.92,827.90 1184.98,821.66 1186.35,815.45 1187.59,810.67"/>
    </edge>
    <edge id=":isahakyan_2_7" function="internal">
        <lane id=":isahakyan_2_7_0" index="0" speed="7.10" length="7.79" shape="1183.67,830.19 1183.69,829.22 1184.36,826.59 1185.62,824.91 1187.49,824.18"/>
    </edge>
    <edge id=":isahakyan_2_3" function="internal">
        <lane id=":isahakyan_2_3_0" index="0" speed="13.90" length="22.35" shape="1179.81,831.92 1181.46,827.36 1182.77,821.23 1183.68,814.99 1184.13,810.08"/>
    </edge>
    <edge id=":isahakyan_2_4" function="internal">
        <lane id=":isahakyan_2_4_0" index="0" speed="13.90" length="22.66" shape="1179.81,831.92 1181.85,827.43 1184.09,821.45 1186.14,815.40 1187.59,810.67"/>
    </edge>
    <edge id=":isahakyan_2_5" function="internal">
        <lane id=":isahakyan_2_5_0" index="0" speed="9.75" length="11.23" shape="1179.81,831.92 1181.80,828.70 1183.74,826.33 1185.64,824.83 1187.49,824.18"/>
    </edge>
    <edge id=":isahakyan_3_0" function="internal">
        <lane id=":isahakyan_3_0_0" index="0" speed="13.90" length="34.42" shape="1265.38,551.17 1263.53,516.80"/>
    </edge>
    <edge id=":isahakyan_3_1" function="internal">
        <lane id=":isahakyan_3_1_0" index="0" speed="13.90" length="6.49" shape="1265.38,551.17 1265.39,544.69"/>
    </edge>
    <edge id=":isahakyan_3_2" function="internal">
        <lane id=":isahakyan_3_2_0" index="0" speed="10.79" length="6.65" shape="1265.38,551.17 1265.27,546.18 1265.49,544.54"/>
    </edge>
    <edge id=":isahakyan_3_9" function="internal">
        <lane id=":isahakyan_3_9_0" index="0" speed="13.90" length="27.84" shape="1265.39,544.69 1265.39,544.41 1265.83,534.03 1266.43,523.65 1266.93,516.89"/>
    </edge>
    <edge id=":isahakyan_3_10" function="internal">
        <lane id=":isahakyan_3_10_0" index="0" speed="10.79" length="8.44" shape="1265.49,544.54 1265.80,542.15 1266.97,539.09 1268.77,537.01"/>
    </edge>
    <edge id=":isahakyan_3_3" function="internal">
        <lane id=":isahakyan_3_3_0" index="0" speed="13.90" length="37.49" shape="1257.26,553.67 1259.30,546.77 1261.39,535.47 1262.99,524.06 1263.53,516.80"/>
    </edge>
    <edge id=":isahakyan_3_4" function="internal">
        <lane id=":isahakyan_3_4_0" index="0" speed="13.90" length="38.08" shape="1257.26,553.67 1259.73,546.78 1262.83,535.51 1265.56,524.13 1266.93,516.89"/>
    </edge>
    <edge id=":isahakyan_3_5" function="internal">
        <lane id=":isahakyan_3_5_0" index="0" speed="13.90" length="20.34" shape="1257.26,553.67 1259.53,549.65 1262.43,544.83 1265.63,540.27 1268.77,537.01"/>
    </edge>
    <edge id=":isahakyan_3_6" function="internal">
        <lane id=":isahakyan_3_6_0" index="0" speed="13.90" length="38.37" shape="1260.52,555.02 1261.60,547.72 1262.62,535.98 1263.35,524.21 1263.53,516.80"/>
    </edge>
    <edge id=":isahakyan_3_7" function="internal">
        <lane id=":isahakyan_3_7_0" index="0" speed="13.90" length="38.67" shape="1260.52,555.02 1262.03,547.74 1264.06,536.02 1265.92,524.27 1266.93,516.89"/>
    </edge>
    <edge id=":isahakyan_3_8" function="internal">
        <lane id=":isahakyan_3_8_0" index="0" speed="13.90" length="20.03" shape="1260.52,555.02 1261.82,550.60 1263.66,545.34 1265.99,540.42 1268.77,537.01"/>
    </edge>
    <edge id=":khanjyan_1_0" function="internal">
        <lane id=":khanjyan_1_0_0" index="0" speed="7.32" length="9.24" shape="824.66,1088.79 827.02,1087.78 828.70,1086.34 829.70,1084.47 830.02,1082.15"/>
    </edge>
    <edge id=":khanjyan_1_1" function="internal">
        <lane id=":khanjyan_1_1_0" index="0" speed="13.90" length="10.52" shape="824.66,1088.79 827.60,1087.85 829.75,1087.23 831.92,1087.03 834.92,1087.38"/>
    </edge>
    <edge id=":khanjyan_1_2" function="internal">
        <lane id=":khanjyan_1_2_0" index="0" speed="13.90" length="10.83" shape="828.70,1092.83 829.50,1089.84 829.90,1087.57 830.03,1085.25 830.02,1082.15"/>
    </edge>
    <edge id=":khanjyan_1_3" function="internal">
        <lane id=":khanjyan_1_3_0" index="0" speed="6.81" length="3.97" shape="828.70,1092.83 829.77,1090.15 830.43,1089.30"/>
    </edge>
    <edge id=":khanjyan_1_4" function="internal">
        <lane id=":khanjyan_1_4_0" index="0" speed="6.81" length="5.19" shape="830.43,1089.30 831.17,1088.35 832.89,1087.42 834.92,1087.38"/>
    </edge>
    <edge id=":khanjyan_1-_0" function="internal">
        <lane id=":khanjyan_1-_0_0" index="0" speed="13.90" length="12.08" shape="830.72,1086.51 827.46,1086.09 824.72,1086.14 822.01,1086.63 818.83,1087.54"/>
    </edge>
    <edge id=":khanjyan_1-_1" function="internal">
        <lane id=":khanjyan_1-_1_0" index="0" speed="13.90" length="14.23" shape="830.72,1086.51 827.16,1085.79 823.77,1084.98 820.41,1084.06 816.93,1083.02"/>
    </edge>
    <edge id=":khanjyan_1-_2" function="internal">
        <lane id=":khanjyan_1-_2_0" index="0" speed="13.90" length="13.84" shape="830.72,1086.51 827.29,1085.58 824.29,1084.12 821.55,1082.17 818.91,1079.74"/>
    </edge>
    <edge id=":khanjyan_1-_3" function="internal">
        <lane id=":khanjyan_1-_3_0" index="0" speed="13.90" length="13.21" shape="830.64,1081.81 827.79,1083.78 825.03,1085.26 822.13,1086.45 818.83,1087.54"/>
    </edge>
    <edge id=":khanjyan_1-_4" function="internal">
        <lane id=":khanjyan_1-_4_0" index="0" speed="10.92" length="14.29" shape="830.64,1081.81 827.88,1083.33 824.68,1084.04 821.02,1083.94 816.93,1083.02"/>
    </edge>
    <edge id=":khanjyan_1-_5" function="internal">
        <lane id=":khanjyan_1-_5_0" index="0" speed="8.11" length="13.19" shape="830.64,1081.81 827.83,1083.26 824.94,1083.40 821.97,1082.22 818.91,1079.74"/>
    </edge>
    <edge id=":khanjyan_1-_6" function="internal">
        <lane id=":khanjyan_1-_6_0" index="0" speed="8.34" length="3.16" shape="826.89,1079.93 826.37,1082.34 825.96,1082.90"/>
    </edge>
    <edge id=":khanjyan_1-_7" function="internal">
        <lane id=":khanjyan_1-_7_0" index="0" speed="6.87" length="3.21" shape="826.89,1079.93 826.25,1082.42 825.73,1082.79"/>
    </edge>
    <edge id=":khanjyan_1-_8" function="internal">
        <lane id=":khanjyan_1-_8_0" index="0" speed="5.32" length="3.24" shape="826.89,1079.93 825.90,1081.29 824.35,1081.46"/>
    </edge>
    <edge id=":khanjyan_1-_9" function="internal">
        <lane id=":khanjyan_1-_9_0" index="0" speed="8.34" length="8.70" shape="825.96,1082.90 824.85,1084.41 822.34,1086.14 818.83,1087.54"/>
    </edge>
    <edge id=":khanjyan_1-_10" function="internal">
        <lane id=":khanjyan_1-_10_0" index="0" speed="6.87" length="9.23" shape="825.73,1082.79 824.37,1083.76 821.26,1083.96 816.93,1083.02"/>
    </edge>
    <edge id=":khanjyan_1-_11" function="internal">
        <lane id=":khanjyan_1-_11_0" index="0" speed="5.32" length="5.84" shape="824.35,1081.46 823.59,1081.54 820.94,1080.94 818.91,1079.74"/>
    </edge>
    <edge id=":koryun_1_0" function="internal">
        <lane id=":koryun_1_0_0" index="0" speed="9.24" length="1.53" shape="1214.26,1202.61 1213.95,1201.11"/>
    </edge>
    <edge id=":koryun_1_1" function="internal">
        <lane id=":koryun_1_1_0" index="0" speed="4.97" length="1.56" shape="1214.26,1202.61 1213.83,1201.12"/>
    </edge>
    <edge id=":koryun_1_4" function="internal">
        <lane id=":koryun_1_4_0" index="0" speed="9.24" length="6.69" shape="1213.95,1201.11 1213.92,1200.97 1214.03,1199.11 1214.58,1197.02 1215.58,1194.71"/>
    </edge>
    <edge id=":koryun_1_5" function="internal">
        <lane id=":koryun_1_5_0" index="0" speed="4.97" length="6.91" shape="1213.83,1201.12 1213.41,1199.63 1213.59,1198.08 1214.80,1197.95 1217.03,1199.26"/>
    </edge>
    <edge id=":koryun_1_2" function="internal">
        <lane id=":koryun_1_2_0" index="0" speed="13.90" length="8.83" shape="1210.07,1201.44 1212.09,1199.79 1213.37,1198.51 1214.38,1197.02 1215.58,1194.71"/>
    </edge>
    <edge id=":koryun_1_3" function="internal">
        <lane id=":koryun_1_3_0" index="0" speed="6.73" length="7.75" shape="1210.07,1201.44 1212.29,1199.88 1214.20,1199.00 1215.78,1198.79 1217.03,1199.26"/>
    </edge>
    <edge id=":koryun_1-_0" function="internal">
        <lane id=":koryun_1-_0_0" index="0" speed="5.46" length="10.31" shape="1218.08,1187.23 1215.06,1185.64 1213.32,1185.69 1212.86,1187.36 1213.69,1190.68"/>
    </edge>
    <edge id=":koryun_1-_1" function="internal">
        <lane id=":koryun_1-_1_0" index="0" speed="11.03" length="21.52" shape="1218.08,1187.23 1212.96,1184.76 1207.94,1184.12 1203.01,1185.31 1198.18,1188.35"/>
    </edge>
    <edge id=":koryun_1-_2" function="internal">
        <lane id=":koryun_1-_2_0" index="0" speed="13.90" length="23.17" shape="1218.08,1187.23 1212.71,1184.44 1207.22,1183.04 1201.64,1183.04 1195.94,1184.43"/>
    </edge>
    <edge id=":koryun_1-_3" function="internal">
        <lane id=":koryun_1-_3_0" index="0" speed="13.90" length="20.95" shape="1213.54,1170.27 1211.99,1174.66 1211.50,1179.52 1212.07,1184.86 1213.69,1190.68"/>
    </edge>
    <edge id=":koryun_1-_4" function="internal">
        <lane id=":koryun_1-_4_0" index="0" speed="13.90" length="23.79" shape="1213.54,1170.27 1210.74,1174.54 1206.47,1179.79 1201.89,1184.81 1198.18,1188.35"/>
    </edge>
    <edge id=":koryun_1-_5" function="internal">
        <lane id=":koryun_1-_5_0" index="0" speed="13.90" length="22.83" shape="1213.54,1170.27 1210.51,1174.13 1205.66,1178.39 1200.36,1182.13 1195.94,1184.43"/>
    </edge>
    <edge id=":koryun_1-_6" function="internal">
        <lane id=":koryun_1-_6_0" index="0" speed="13.90" length="22.05" shape="1208.32,1169.32 1209.14,1174.09 1210.57,1180.10 1212.22,1186.05 1213.69,1190.68"/>
    </edge>
    <edge id=":koryun_1-_7" function="internal">
        <lane id=":koryun_1-_7_0" index="0" speed="13.25" length="12.86" shape="1208.32,1169.32 1208.06,1174.19 1206.29,1178.99 1204.65,1181.34"/>
    </edge>
    <edge id=":koryun_1-_8" function="internal">
        <lane id=":koryun_1-_8_0" index="0" speed="10.68" length="14.07" shape="1208.32,1169.32 1207.94,1174.10 1205.75,1178.21 1202.25,1181.22"/>
    </edge>
    <edge id=":koryun_1-_9" function="internal">
        <lane id=":koryun_1-_9_0" index="0" speed="13.25" length="9.58" shape="1204.65,1181.34 1202.99,1183.71 1198.18,1188.35"/>
    </edge>
    <edge id=":koryun_1-_10" function="internal">
        <lane id=":koryun_1-_10_0" index="0" speed="10.68" length="7.10" shape="1202.25,1181.22 1201.75,1181.65 1195.94,1184.43"/>
    </edge>
    <edge id=":koryun_2_0" function="internal">
        <lane id=":koryun_2_0_0" index="0" speed="13.90" length="14.02" shape="1314.17,1007.51 1313.13,1004.07 1312.39,1000.74 1311.83,997.38 1311.33,993.81"/>
    </edge>
    <edge id=":koryun_2_1" function="internal">
        <lane id=":koryun_2_1_0" index="0" speed="13.90" length="2.11" shape="1314.17,1007.51 1313.71,1005.45"/>
    </edge>
    <edge id=":koryun_2_2" function="internal">
        <lane id=":koryun_2_2_0" index="0" speed="5.24" length="2.05" shape="1314.17,1007.51 1313.63,1005.53"/>
    </edge>
    <edge id=":koryun_2_6" function="internal">
        <lane id=":koryun_2_6_0" index="0" speed="13.90" length="11.58" shape="1313.71,1005.45 1313.42,1004.09 1313.47,1000.83 1314.10,997.55 1315.09,994.10"/>
    </edge>
    <edge id=":koryun_2_7" function="internal">
        <lane id=":koryun_2_7_0" index="0" speed="5.24" length="6.93" shape="1313.63,1005.53 1313.23,1004.06 1313.26,1001.98 1314.27,1001.28 1316.26,1001.94"/>
    </edge>
    <edge id=":koryun_2_3" function="internal">
        <lane id=":koryun_2_3_0" index="0" speed="13.90" length="13.71" shape="1310.06,1007.23 1311.31,1003.95 1311.80,1000.70 1311.74,997.37 1311.33,993.81"/>
    </edge>
    <edge id=":koryun_2_4" function="internal">
        <lane id=":koryun_2_4_0" index="0" speed="13.90" length="14.08" shape="1310.06,1007.23 1311.59,1003.97 1312.87,1000.79 1314.01,997.55 1315.09,994.10"/>
    </edge>
    <edge id=":koryun_2_5" function="internal">
        <lane id=":koryun_2_5_0" index="0" speed="6.40" length="8.92" shape="1310.06,1007.23 1311.73,1004.35 1313.32,1002.51 1314.83,1001.71 1316.26,1001.94"/>
    </edge>
    <edge id=":koryun_2-_0" function="internal">
        <lane id=":koryun_2-_0_0" index="0" speed="5.47" length="9.83" shape="1313.72,993.51 1310.81,992.26 1309.07,992.46 1308.50,994.11 1309.09,997.22"/>
    </edge>
    <edge id=":koryun_2-_1" function="internal">
        <lane id=":koryun_2-_1_0" index="0" speed="7.64" length="13.36" shape="1313.72,993.51 1309.60,991.62 1306.26,991.06 1303.70,991.84 1301.92,993.96"/>
    </edge>
    <edge id=":koryun_2-_2" function="internal">
        <lane id=":koryun_2-_2_0" index="0" speed="13.90" length="16.61" shape="1313.72,993.51 1310.14,991.61 1306.13,989.89 1302.01,988.77 1298.09,988.66"/>
    </edge>
    <edge id=":koryun_2-_3" function="internal">
        <lane id=":koryun_2-_3_0" index="0" speed="13.90" length="22.05" shape="1309.07,975.33 1308.24,980.09 1307.97,986.27 1308.26,992.45 1309.09,997.22"/>
    </edge>
    <edge id=":koryun_2-_4" function="internal">
        <lane id=":koryun_2-_4_0" index="0" speed="13.90" length="19.97" shape="1309.07,975.33 1307.64,979.62 1305.78,984.76 1303.77,989.83 1301.92,993.96"/>
    </edge>
    <edge id=":koryun_2-_5" function="internal">
        <lane id=":koryun_2-_5_0" index="0" speed="10.96" length="18.15" shape="1309.07,975.33 1306.95,980.77 1304.42,984.80 1301.47,987.43 1298.09,988.66"/>
    </edge>
    <edge id=":koryun_2-_6" function="internal">
        <lane id=":koryun_2-_6_0" index="0" speed="13.90" length="22.85" shape="1304.29,974.89 1305.08,979.80 1306.36,986.13 1307.81,992.41 1309.09,997.22"/>
    </edge>
    <edge id=":koryun_2-_7" function="internal">
        <lane id=":koryun_2-_7_0" index="0" speed="13.90" length="12.44" shape="1304.29,974.89 1304.48,979.34 1304.17,984.61 1303.73,987.29"/>
    </edge>
    <edge id=":koryun_2-_8" function="internal">
        <lane id=":koryun_2-_8_0" index="0" speed="8.76" length="13.12" shape="1304.29,974.89 1304.47,980.49 1303.50,984.65 1301.50,987.21"/>
    </edge>
    <edge id=":koryun_2-_9" function="internal">
        <lane id=":koryun_2-_9_0" index="0" speed="13.90" length="6.93" shape="1303.73,987.29 1303.32,989.79 1301.92,993.96"/>
    </edge>
    <edge id=":koryun_2-_10" function="internal">
        <lane id=":koryun_2-_10_0" index="0" speed="8.76" length="3.73" shape="1301.50,987.21 1301.37,987.38 1298.09,988.66"/>
    </edge>
    <edge id=":koryun_3_0" function="internal">
        <lane id=":koryun_3_0_0" index="0" speed="13.90" length="9.22" shape="1393.85,747.25 1393.15,744.60 1392.65,742.79 1392.28,740.95 1391.94,738.24"/>
    </edge>
    <edge id=":koryun_3_1" function="internal">
        <lane id=":koryun_3_1_0" index="0" speed="13.90" length="9.25" shape="1389.97,747.15 1390.90,744.55 1391.63,742.76 1392.01,740.93 1391.94,738.24"/>
    </edge>
    <edge id=":koryun_3-_0" function="internal">
        <lane id=":koryun_3-_0_0" index="0" speed="13.90" length="8.98" shape="1382.76,734.68 1383.10,737.32 1383.52,739.09 1384.07,740.84 1384.83,743.40"/>
    </edge>
    <edge id=":koryun_3-_1" function="internal">
        <lane id=":koryun_3-_1_0" index="0" speed="13.90" length="9.31" shape="1382.76,734.68 1382.83,737.39 1382.46,739.24 1381.76,741.05 1380.82,743.66"/>
    </edge>
    <edge id=":koryun_3-_2" function="internal">