<?xml version='1.0' encoding='UTF-8'?>
<routes>
  <vType id="car" accel="1.0" decel="4.5" length="5" maxSpeed="16.6" sigma="0.5"/>
  <flow id="flow_route_0" type="car" from="1318793176#1" to="133126031#0" begin="0" end="60" number="53" departPos="random" arrivalPos="random"/>
  <flow id="flow_route_1" type="car" from="1318793176#1" to="1318793173#0" begin="0" end="60" number="43" departPos="random" arrivalPos="random"/>
  <flow id="flow_route_2" type="car" from="1318793173#0" to="189835257" begin="0" end="60" number="283" departPos="random" arrivalPos="random"/>
  <flow id="flow_route_3" type="car" from="1318793173#0" to="291974733#0" begin="0" end="60" number="57" departPos="random" arrivalPos="random"/>
  <flow id="flow_route_4" type="car" from="291974733#0" to="379698350#0" begin="0" end="60" number="78" departPos="random" arrivalPos="random"/>
  <flow id="flow_route_5" type="car" from="291974733#0" to="1342054204" begin="0" end="60" number="52" departPos="random" arrivalPos="random"/>
  <flow id="flow_route_6" type="car" from="1252820505#0" to="379698350#0" begin="0" end="60" number="46" departPos="random" arrivalPos="random"/>
  <flow id="flow_route_7" type="car" from="133000078#0" to="137406408#0" begin="0" end="60" number="175" departPos="random" arrivalPos="random"/>
  <flow id="flow_route_8" type="car" from="133000078#0" to="1235147073.116" begin="0" end="60" number="269" departPos="random" arrivalPos="random"/>
  <flow id="flow_route_9" type="car" from="1318793173#0" to="1254771874#0" begin="0" end="60" number="19" departPos="random" arrivalPos="random"/>
  <flow id="flow_route_10" type="car" from="1252820505#0" to="1235147073.116" begin="0" end="60" number="150" departPos="random" arrivalPos="random"/>
  <flow id="flow_route_11" type="car" from="1252820505#0" to="137406408#0" begin="0" end="60" number="28" departPos="random" arrivalPos="random"/>
  <flow id="flow_route_12" type="car" from="133000078#0" to="1342054204" begin="0" end="60" number="46" departPos="random" arrivalPos="random"/>
  <flow id="flow_route_13" type="car" from="1252820503#0" to="291974733#0" begin="0" end="60" number="214" departPos="random" arrivalPos="random"/>
  <flow id="flow_route_14" type="car" from="1252820503#0" to="1254771874#0" begin="0" end="60" number="195" departPos="random" arrivalPos="random"/>
  <flow id="flow_route_15" type="car" from="1252820503#0" to="133126040#0" begin="0" end="60" number="273" departPos="random" arrivalPos="random"/>
  <flow id="flow_route_16" type="car" from="137406408#0" to="133126040#0" begin="0" end="60" number="26" departPos="random" arrivalPos="random"/>
  <flow id="flow_route_17" type="car" from="137406408#0" to="1254771874#0" begin="0" end="60" number="175" departPos="random" arrivalPos="random"/>
  <flow id="flow_route_18" type="car" from="133126040#0" to="1318893695#0" begin="0" end="60" number="238" departPos="random" arrivalPos="random"/>
  <flow id="flow_route_19" type="car" from="133126040#0" to="133126031#0" begin="0" end="60" number="8" departPos="random" arrivalPos="random"/>
  <flow id="flow_route_20" type="car" from="1318893695#0" to="133131666#1" begin="0" end="60" number="179" departPos="random" arrivalPos="random"/>
  <flow id="flow_route_21" type="car" from="380585337#0" to="1318793176#1" begin="0" end="60" number="200" departPos="random" arrivalPos="random"/>
  <flow id="flow_route_22" type="car" from="137415945#0" to="1342054204" begin="0" end="60" number="61" departPos="random" arrivalPos="random"/>
  <flow id="flow_route_23" type="car" from="137415945#0" to="379698350#0" begin="0" end="60" number="85" departPos="random" arrivalPos="random"/>
  <flow id="flow_route_24" type="car" from="137415945#0" to="137406408#0" begin="0" end="60" number="268" departPos="random" arrivalPos="random"/>
  <flow id="flow_route_25" type="car" from="1254771874#0" to="1341093415#0" begin="0" end="60" number="214" departPos="random" arrivalPos="random"/>
  <flow id="flow_route_26" type="car" from="1254771874#0" to="-422986370#2" begin="0" end="60" number="281" departPos="random" arrivalPos="random"/>
  <flow id="flow_route_27" type="car" from="1254771874#0" to="138002006#0" begin="0" end="60" number="33" departPos="random" arrivalPos="random"/>
  <flow id="flow_route_28" type="car" from="-422986370#2" to="-430406005#1" begin="0" end="60" number="49" departPos="random" arrivalPos="random"/>
  <flow id="flow_route_29" type="car" from="-422986370#2" to="137415945#0" begin="0" end="60" number="92" departPos="random" arrivalPos="random"/>
  <flow id="flow_route_30" type="car" from="1235147073.116" to="133126030#0" begin="0" end="60" number="215" departPos="random" arrivalPos="random"/>
  <flow id="flow_route_31" type="car" from="1235147073.116" to="-430406005#1" begin="0" end="60" number="131" departPos="random" arrivalPos="random"/>
  <flow id="flow_route_32" type="car" from="1235147073.116" to="1369578054" begin="0" end="60" number="219" departPos="random" arrivalPos="random"/>
  <flow id="flow_route_33" type="car" from="133126008#0" to="1369578054" begin="0" end="60" number="212" departPos="random" arrivalPos="random"/>
  <flow id="flow_route_34" type="car" from="133126008#0" to="133126030#0" begin="0" end="60" number="167" departPos="random" arrivalPos="random"/>
  <flow id="flow_route_35" type="car" from="485211947#0" to="1369578054" begin="0" end="60" number="170" departPos="random" arrivalPos="random"/>
  <flow id="flow_route_36" type="car" from="485211947#0" to="137415945#0" begin="0" end="60" number="76" departPos="random" arrivalPos="random"/>
  <flow id="flow_route_37" type="car" from="485211947#0" to="-430406005#1" begin="0" end="60" number="8" departPos="random" arrivalPos="random"/>
  <flow id="flow_route_38" type="car" from="133126030#0" to="134193294#0" begin="0" end="60" number="103" departPos="random" arrivalPos="random"/>
  <flow id="flow_route_39" type="car" from="133126030#0" to="1328664748#0" begin="0" end="60" number="197" departPos="random" arrivalPos="random"/>
  <flow id="flow_route_40" type="car" from="1369578054" to="1341093415#0" begin="0" end="60" number="191" departPos="random" arrivalPos="random"/>
  <flow id="flow_route_41" type="car" from="1369578054" to="138002006#0" begin="0" end="60" number="65" departPos="random" arrivalPos="random"/>
  <flow id="flow_route_42" type="car" from="1328664744#0" to="133126030#0" begin="0" end="60" number="7" departPos="random" arrivalPos="random"/>
  <flow id="flow_route_43" type="car" from="1328664744#0" to="134193294#0" begin="0" end="60" number="7" departPos="random" arrivalPos="random"/>
  <flow id="flow_route_44" type="car" from="791826085" to="134193294#0" begin="0" end="60" number="280" departPos="random" arrivalPos="random"/>
  <flow id="flow_route_45" type="car" from="791826085" to="485211947#0" begin="0" end="60" number="282" departPos="random" arrivalPos="random"/>
  <flow id="flow_route_46" type="car" from="791826085" to="1328664748#0" begin="0" end="60" number="111" departPos="random" arrivalPos="random"/>
  <flow id="flow_route_47" type="car" from="380351865#0" to="1318793173#0" begin="0" end="60" number="172" departPos="random" arrivalPos="random"/>
  <flow id="flow_route_48" type="car" from="380351865#0" to="133126031#0" begin="0" end="60" number="208" departPos="random" arrivalPos="random"/>
  <flow id="flow_route_49" type="car" from="380351865#0" to="1318893695#0" begin="0" end="60" number="159" departPos="random" arrivalPos="random"/>
  <flow id="flow_route_50" type="car" from="-138002006#3" to="-422986370#2" begin="0" end="60" number="247" departPos="random" arrivalPos="random"/>
  <flow id="flow_route_51" type="car" from="-138002006#3" to="1341093415#0" begin="0" end="60" number="8" departPos="random" arrivalPos="random"/>
  <flow id="flow_route_52" type="car" from="138002006#0" to="380351865#0" begin="0" end="60" number="5" departPos="random" arrivalPos="random"/>
  <flow id="flow_route_53" type="car" from="138002006#0" to="1369578052#0" begin="0" end="60" number="209" departPos="random" arrivalPos="random"/>
  <flow id="flow_route_54" type="car" from="1341093415#0" to="1341093416#0" begin="0" end="60" number="216" departPos="random" arrivalPos="random"/>
  <flow id="flow_route_55" type="car" from="1341093415#0" to="791826085" begin="0" end="60" number="229" departPos="random" arrivalPos="random"/>
  <flow id="flow_route_56" type="car" from="1341093415#0" to="409155823" begin="0" end="60" number="11" departPos="random" arrivalPos="random"/>
  <flow id="flow_route_57" type="car" from="186407685" to="380351865#0" begin="0" end="60" number="130" departPos="random" arrivalPos="random"/>
  <flow id="flow_route_58" type="car" from="186407685" to="-138002006#3" begin="0" end="60" number="16" departPos="random" arrivalPos="random"/>
  <flow id="flow_route_59" type="car" from="186407685" to="1369578052#0" begin="0" end="60" number="267" departPos="random" arrivalPos="random"/>
  <flow id="flow_route_60" type="car" from="186407684#0" to="791826085" begin="0" end="60" number="276" departPos="random" arrivalPos="random"/>
  <flow id="flow_route_61" type="car" from="186407684#0" to="1341093416#0" begin="0" end="60" number="15" departPos="random" arrivalPos="random"/>
  <flow id="flow_route_62" type="car" from="409155823" to="1091883842" begin="0" end="60" number="115" departPos="random" arrivalPos="random"/>
  <flow id="flow_route_63" type="car" from="133131666#1" to="133342692#0" begin="0" end="60" number="151" departPos="random" arrivalPos="random"/>
  <flow id="flow_route_64" type="car" from="133131666#1" to="-138002002#2" begin="0" end="60" number="185" departPos="random" arrivalPos="random"/>
  <flow id="flow_route_65" type="car" from="133131666#1" to="138002016#0" begin="0" end="60" number="222" departPos="random" arrivalPos="random"/>
  <flow id="flow_route_66" type="car" from="-138002002#2" to="-138002006#3" begin="0" end="60" number="88" departPos="random" arrivalPos="random"/>
  <flow id="flow_route_67" type="car" from="-138002002#2" to="380351865#0" begin="0" end="60" number="29" departPos="random" arrivalPos="random"/>
  <flow id="flow_route_68" type="car" from="1253209803#0" to="-138002002#2" begin="0" end="60" number="230" departPos="random" arrivalPos="random"/>
  <flow id="flow_route_69" type="car" from="1253209803#0" to="380585337#0" begin="0" end="60" number="244" departPos="random" arrivalPos="random"/>
  <flow id="flow_route_70" type="car" from="1253209803#0" to="133342692#0" begin="0" end="60" number="11" departPos="random" arrivalPos="random"/>
  <flow id="flow_route_71" type="car" from="1369578052#0" to="138002016#0" begin="0" end="60" number="59" departPos="random" arrivalPos="random"/>
  <flow id="flow_route_72" type="car" from="1369578052#0" to="133342692#0" begin="0" end="60" number="173" departPos="random" arrivalPos="random"/>
  <flow id="flow_route_73" type="car" from="380593307#0" to="380585337#0" begin="0" end="60" number="146" departPos="random" arrivalPos="random"/>
  <flow id="flow_route_74" type="car" from="380593307#0" to="138002016#0" begin="0" end="60" number="49" departPos="random" arrivalPos="random"/>
  <flow id="flow_route_75" type="car" from="380593307#0" to="-138002002#2" begin="0" end="60" number="10" departPos="random" arrivalPos="random"/>
  <flow id="flow_route_76" type="car" from="133342692#0" to="133000063" begin="0" end="60" number="274" departPos="random" arrivalPos="random"/>
  <flow id="flow_route_77" type="car" from="133342692#0" to="423956929" begin="0" end="60" number="114" departPos="random" arrivalPos="random"/>
  <flow id="flow_route_78" type="car" from="133342692#0" to="136617981" begin="0" end="60" number="43" departPos="random" arrivalPos="random"/>
  <flow id="flow_route_79" type="car" from="380344611#0" to="423956929" begin="0" end="60" number="260" departPos="random" arrivalPos="random"/>
  <flow id="flow_route_80" type="car" from="380344611#0" to="380593307#0" begin="0" end="60" number="258" departPos="random" arrivalPos="random"/>
  <flow id="flow_route_81" type="car" from="380344611#0" to="133000063" begin="0" end="60" number="36" departPos="random" arrivalPos="random"/>
  <flow id="flow_route_82" type="car" from="423956929" to="186407684#0" begin="0" end="60" number="155" departPos="random" arrivalPos="random"/>
  <flow id="flow_route_83" type="car" from="423956929" to="186407685" begin="0" end="60" number="240" departPos="random" arrivalPos="random"/>
  <flow id="flow_route_84" type="car" from="1091883842" to="136617981" begin="0" end="60" number="142" departPos="random" arrivalPos="random"/>
  <flow id="flow_route_85" type="car" from="1091883842" to="133000063" begin="0" end="60" number="56" departPos="random" arrivalPos="random"/>
  <flow id="flow_route_86" type="car" from="430416184" to="186407685" begin="0" end="60" number="38" departPos="random" arrivalPos="random"/>
  <flow id="flow_route_87" type="car" from="430416184" to="1091883842" begin="0" end="60" number="267" departPos="random" arrivalPos="random"/>
  <flow id="flow_route_88" type="car" from="430416184" to="186407684#0" begin="0" end="60" number="33" departPos="random" arrivalPos="random"/>
  <flow id="flow_route_89" type="car" from="380585338#0" to="380593307#0" begin="0" end="60" number="169" departPos="random" arrivalPos="random"/>
  <flow id="flow_route_90" type="car" from="380585338#0" to="136617981" begin="0" end="60" number="57" departPos="random" arrivalPos="random"/>
  <flow id="flow_route_91" type="car" from="133000063" to="683079387#1" begin="0" end="60" number="22" departPos="random" arrivalPos="random"/>
  <flow id="flow_route_92" type="car" from="133000063" to="186409193" begin="0" end="60" number="250" departPos="random" arrivalPos="random"/>
  <flow id="flow_route_93" type="car" from="133000063" to="380585336" begin="0" end="60" number="9" departPos="random" arrivalPos="random"/>
  <flow id="flow_route_94" type="car" from="1341093416#0" to="799091563#0" begin="0" end="60" number="286" departPos="random" arrivalPos="random"/>
  <flow id="flow_route_95" type="car" from="1341093416#0" to="1254519225#0.109" begin="0" end="60" number="223" departPos="random" arrivalPos="random"/>
  <flow id="flow_route_96" type="car" from="1341093416#0" to="1254519229#0" begin="0" end="60" number="3" departPos="random" arrivalPos="random"/>
  <flow id="flow_route_97" type="car" from="1328664748#0" to="135474719#0" begin="0" end="60" number="250" departPos="random" arrivalPos="random"/>
  <flow id="flow_route_98" type="car" from="1328664748#0" to="177211987#1" begin="0" end="60" number="264" departPos="random" arrivalPos="random"/>
  <flow id="flow_route_99" type="car" from="1328664748#0" to="1253188486#8" begin="0" end="60" number="13" departPos="random" arrivalPos="random"/>
  <flow id="flow_route_100" type="car" from="186409193" to="1254519229#0" begin="0" end="60" number="116" departPos="random" arrivalPos="random"/>
  <flow id="flow_route_101" type="car" from="186409193" to="430416184" begin="0" end="60" number="252" departPos="random" arrivalPos="random"/>
  <flow id="flow_route_102" type="car" from="1342963997" to="380585336" begin="0" end="60" number="7" departPos="random" arrivalPos="random"/>
  <flow id="flow_route_103" type="car" from="1342963997" to="683079387#1" begin="0" end="60" number="14" departPos="random" arrivalPos="random"/>
  <flow id="flow_route_104" type="car" from="189240001" to="1254519225#0.109" begin="0" end="60" number="230" departPos="random" arrivalPos="random"/>
  <flow id="flow_route_105" type="car" from="189240001" to="799091563#0" begin="0" end="60" number="70" departPos="random" arrivalPos="random"/>
  <flow id="flow_route_106" type="car" from="1254519229#0" to="430416184" begin="0" end="60" number="89" departPos="random" arrivalPos="random"/>
  <flow id="flow_route_107" type="car" from="1254519229#0" to="1342963997" begin="0" end="60" number="261" departPos="random" arrivalPos="random"/>
  <flow id="flow_route_108" type="car" from="1254519225#0.109" to="135474719#0" begin="0" end="60" number="29" departPos="random" arrivalPos="random"/>
  <flow id="flow_route_109" type="car" from="1254519225#0.109" to="1328664744#0" begin="0" end="60" number="271" departPos="random" arrivalPos="random"/>
  <flow id="flow_route_110" type="car" from="1254519225#0.109" to="177211987#1" begin="0" end="60" number="76" departPos="random" arrivalPos="random"/>
  <flow id="flow_route_111" type="car" from="1253188486#8" to="1254519229#0" begin="0" end="60" number="7" departPos="random" arrivalPos="random"/>
  <flow id="flow_route_112" type="car" from="1253188486#8" to="799091563#0" begin="0" end="60" number="272" departPos="random" arrivalPos="random"/>
  <flow id="flow_route_113" type="car" from="1253188486#4" to="1253188486#8" begin="0" end="60" number="266" departPos="random" arrivalPos="random"/>
  <flow id="flow_route_114" type="car" from="1253188486#4" to="177211987#1" begin="0" end="60" number="179" departPos="random" arrivalPos="random"/>
  <flow id="flow_route_115" type="car" from="1253188486#4" to="1328664744#0" begin="0" end="60" number="91" departPos="random" arrivalPos="random"/>
  <flow id="flow_route_116" type="car" from="177211987#1" to="688883939#0" begin="0" end="60" number="41" departPos="random" arrivalPos="random"/>
  <flow id="flow_route_117" type="car" from="177211987#1" to="138000492#0" begin="0" end="60" number="221" departPos="random" arrivalPos="random"/>
  <flow id="flow_route_118" type="car" from="134194079#0" to="1328664744#0" begin="0" end="60" number="48" departPos="random" arrivalPos="random"/>
  <flow id="flow_route_119" type="car" from="134194079#0" to="1253188486#8" begin="0" end="60" number="262" departPos="random" arrivalPos="random"/>
  <flow id="flow_route_120" type="car" from="799091563#0" to="138000492#0" begin="0" end="60" number="109" departPos="random" arrivalPos="random"/>
  <flow id="flow_route_121" type="car" from="799091563#0" to="134194079#0" begin="0" end="60" number="281" departPos="random" arrivalPos="random"/>
  <flow id="flow_route_122" type="car" from="799091563#0" to="688883939#0" begin="0" end="60" number="18" departPos="random" arrivalPos="random"/>
  <flow id="flow_route_123" type="car" from="189240000#0-AddedOnRampEdge" to="1254519229#0" begin="0" end="60" number="285" departPos="random" arrivalPos="random"/>
  <flow id="flow_route_124" type="car" from="189240000#0-AddedOnRampEdge" to="1254519225#0.109" begin="0" end="60" number="6" departPos="random" arrivalPos="random"/>
  <flow id="flow_route_125" type="car" from="138000461" to="380585336" begin="0" end="60" number="19" departPos="random" arrivalPos="random"/>
  <flow id="flow_route_126" type="car" from="-138000461" to="138000492#0" begin="0" end="60" number="31" departPos="random" arrivalPos="random"/>
  <flow id="flow_route_127" type="car" from="-138000461" to="189240000#0-AddedOnRampEdge" begin="0" end="60" number="192" departPos="random" arrivalPos="random"/>
  <flow id="flow_route_128" type="car" from="134133272" to="380585338#0" begin="0" end="60" number="228" departPos="random" arrivalPos="random"/>
  <flow id="flow_route_129" type="car" from="134133272" to="683079387#1" begin="0" end="60" number="17" departPos="random" arrivalPos="random"/>
  <flow id="flow_route_130" type="car" from="134133272" to="-138000461" begin="0" end="60" number="129" departPos="random" arrivalPos="random"/>
  <flow id="flow_route_131" type="car" from="714011134#0" to="134194079#0" begin="0" end="60" number="230" departPos="random" arrivalPos="random"/>
  <flow id="flow_route_132" type="car" from="714011134#0" to="189240000#0-AddedOnRampEdge" begin="0" end="60" number="230" departPos="random" arrivalPos="random"/>
  <flow id="flow_route_133" type="car" from="714011134#0" to="138000492#0" begin="0" end="60" number="22" departPos="random" arrivalPos="random"/>
  <flow id="flow_route_134" type="car" from="688883939#0" to="809719540#0" begin="0" end="60" number="171" departPos="random" arrivalPos="random"/>
  <flow id="flow_route_135" type="car" from="688883939#0" to="1254157399#1" begin="0" end="60" number="231" departPos="random" arrivalPos="random"/>
  <flow id="flow_route_136" type="car" from="688883939#0" to="186410975#0" begin="0" end="60" number="13" departPos="random" arrivalPos="random"/>
  <flow id="flow_route_137" type="car" from="1310781056" to="714011134#0" begin="0" end="60" number="277" departPos="random" arrivalPos="random"/>
  <flow id="flow_route_138" type="car" from="1310781056" to="186410975#0" begin="0" end="60" number="194" departPos="random" arrivalPos="random"/>
  <flow id="flow_route_139" type="car" from="1310781056" to="1254157399#1" begin="0" end="60" number="102" departPos="random" arrivalPos="random"/>
  <flow id="flow_route_140" type="car" from="809719540#0" to="-809772643#1" begin="0" end="60" number="209" departPos="random" arrivalPos="random"/>
  <flow id="flow_route_141" type="car" from="809719540#0" to="683079387#1" begin="0" end="60" number="54" departPos="random" arrivalPos="random"/>
  <flow id="flow_route_142" type="car" from="1253222187#0" to="683079388#0" begin="0" end="60" number="274" departPos="random" arrivalPos="random"/>
  <flow id="flow_route_143" type="car" from="1253222187#0" to="1310781056" begin="0" end="60" number="44" departPos="random" arrivalPos="random"/>
  <flow id="flow_route_144" type="car" from="683079388#0" to="380585338#0" begin="0" end="60" number="79" departPos="random" arrivalPos="random"/>
  <flow id="flow_route_145" type="car" from="683079388#0" to="380585336" begin="0" end="60" number="216" departPos="random" arrivalPos="random"/>
  <flow id="flow_route_146" type="car" from="683079387#1" to="-809772643#1" begin="0" end="60" number="72" departPos="random" arrivalPos="random"/>
  <flow id="flow_route_147" type="car" from="683079387#1" to="1310781056" begin="0" end="60" number="89" departPos="random" arrivalPos="random"/>
  <flow id="flow_route_148" type="car" from="186410975#0" to="380585336" begin="0" end="60" number="18" departPos="random" arrivalPos="random"/>
  <flow id="flow_route_149" type="car" from="186410975#0" to="430416184" begin="0" end="60" number="48" departPos="random" arrivalPos="random"/>
  <flow id="flow_route_150" type="car" from="186410975#0" to="683079387#1" begin="0" end="60" number="208" departPos="random" arrivalPos="random"/>
  <flow id="flow_route_151" type="car" from="31861355#0" to="186410975#0" begin="0" end="60" number="230" departPos="random" arrivalPos="random"/>
  <flow id="flow_route_152" type="car" from="31861355#0" to="714011134#0" begin="0" end="60" number="40" departPos="random" arrivalPos="random"/>
  <flow id="flow_route_153" type="car" from="31861355#0" to="809719540#0" begin="0" end="60" number="232" departPos="random" arrivalPos="random"/>
  <flow id="flow_route_154" type="car" from="49734468" to="189240000#0-AddedOnRampEdge" begin="0" end="60" number="29" departPos="random" arrivalPos="random"/>
  <flow id="flow_route_155" type="car" from="49734468" to="138000461" begin="0" end="60" number="236" departPos="random" arrivalPos="random"/>
</routes>
