<?xml version="1.0" encoding="UTF-8"?>

<!-- generated on 2025-04-18 00:09:44 by Eclipse SUMO netedit Version 1.20.0
<configuration xmlns:xsi="http://www.w3.org/2001/XMLSchema-instance" xsi:noNamespaceSchemaLocation="http://sumo.dlr.de/xsd/neteditConfiguration.xsd">

    <input>
        <sumo-net-file value="/home/ubuntu/Desktop/thesis/live-traffic-data/osm.net.xml"/>
    </input>

    <output>
        <output-file value="/home/ubuntu/Desktop/thesis/live-traffic-data/osm.net.xml"/>
        <output.street-names value="true"/>
    </output>

    <processing>
        <geometry.min-radius.fix.railways value="false"/>
        <geometry.max-grade.fix value="false"/>
        <offset.disable-normalization value="true"/>
        <lefthand value="0"/>
    </processing>

    <junctions>
        <no-turnarounds value="true"/>
        <junctions.corner-detail value="5"/>
        <junctions.limit-turn-speed value="5.50"/>
        <rectangular-lane-cut value="0"/>
    </junctions>

    <pedestrian>
        <walkingareas value="0"/>
    </pedestrian>

</configuration>
-->

<net version="1.20" junctionCornerDetail="5" limitTurnSpeed="5.50" xmlns:xsi="http://www.w3.org/2001/XMLSchema-instance"
     xsi:noNamespaceSchemaLocation="http://sumo.dlr.de/xsd/net_file.xsd">

    <location netOffset="-458088.05,-4446566.27" convBoundary="463.71,592.83,1850.79,2569.06"
              origBoundary="44.507617,40.168493,44.533715,40.192850"
              projParameter="+proj=utm +zone=38 +ellps=WGS84 +datum=WGS84 +units=m +no_defs"/>

    <type id="highway.primary" priority="12" numLanes="2" speed="27.78"
          disallow="tram rail_urban rail rail_electric rail_fast ship" oneway="0"/>
    <type id="highway.primary_link" priority="7" numLanes="1" speed="22.22"
          disallow="tram rail_urban rail rail_electric rail_fast ship" oneway="0"/>
    <type id="highway.secondary" priority="11" numLanes="1" speed="27.78"
          disallow="tram rail_urban rail rail_electric rail_fast ship" oneway="0"/>
    <type id="highway.secondary_link" priority="6" numLanes="1" speed="22.22"
          disallow="tram rail_urban rail rail_electric rail_fast ship" oneway="0"/>
    <type id="highway.tertiary" priority="10" numLanes="1" speed="22.22"
          disallow="tram rail_urban rail rail_electric rail_fast ship" oneway="0"/>
    <type id="highway.trunk" priority="13" numLanes="2" speed="27.78"
          disallow="pedestrian bicycle tram rail_urban rail rail_electric rail_fast ship" oneway="0"/>
    <type id="highway.trunk_link" priority="8" numLanes="1" speed="22.22"
          disallow="pedestrian bicycle tram rail_urban rail rail_electric rail_fast ship" oneway="0"/>

    <edge id=":11644940304_0" function="internal">
        <lane id=":11644940304_0_0" index="0"
              disallow="tram rail_urban rail rail_electric rail_fast ship cable_car subway" speed="27.78" length="8.59"
              shape="780.15,2186.23 782.43,2185.15 783.67,2183.70 784.91,2182.27 787.19,2181.21"/>
        <lane id=":11644940304_0_1" index="1"
              disallow="tram rail_urban rail rail_electric rail_fast ship cable_car subway" speed="27.78" length="8.59"
              shape="780.94,2189.34 783.20,2188.25 784.43,2186.81 785.66,2185.38 787.94,2184.33"/>
        <lane id=":11644940304_0_2" index="2"
              disallow="tram rail_urban rail rail_electric rail_fast ship cable_car subway" speed="27.78" length="8.59"
              shape="780.94,2189.34 788.68,2187.44"/>
        <lane id=":11644940304_0_3" index="3"
              disallow="tram rail_urban rail rail_electric rail_fast ship cable_car subway" speed="27.78" length="8.59"
              shape="780.94,2189.34 783.43,2189.23 785.17,2189.93 786.92,2190.63 789.42,2190.55"/>
    </edge>
    <edge id=":11644940310_0" function="internal">
        <lane id=":11644940310_0_0" index="0"
              disallow="tram rail_urban rail rail_electric rail_fast ship cable_car subway" speed="16.67" length="22.26"
              shape="1035.93,2093.65 1021.07,2077.08"/>
        <lane id=":11644940310_0_1" index="1"
              disallow="tram rail_urban rail rail_electric rail_fast ship cable_car subway" speed="16.67" length="22.26"
              shape="1038.32,2091.51 1023.45,2074.94"/>
    </edge>
    <edge id=":11644940310_2" function="internal">
        <lane id=":11644940310_2_0" index="0"
              disallow="tram rail_urban rail rail_electric rail_fast ship cable_car subway" speed="7.92" length="2.59"
              shape="1038.32,2091.51 1037.17,2089.19"/>
    </edge>
    <edge id=":11644940310_3" function="internal">
        <lane id=":11644940310_3_0" index="0"
              disallow="tram rail_urban rail rail_electric rail_fast ship cable_car subway" speed="3.65" length="1.44"
              shape="1038.32,2091.51 1038.12,2090.09"/>
    </edge>
    <edge id=":11644940310_13" function="internal">
        <lane id=":11644940310_13_0" index="0"
              disallow="tram rail_urban rail rail_electric rail_fast ship cable_car subway" speed="7.92" length="12.31"
              shape="1037.17,2089.19 1037.07,2088.98 1037.58,2086.14 1039.86,2083.00 1043.90,2079.55"/>
    </edge>
    <edge id=":11644940310_14" function="internal">
        <lane id=":11644940310_14_0" index="0"
              disallow="tram rail_urban rail rail_electric rail_fast ship cable_car subway" speed="3.65" length="3.23"
              shape="1038.12,2090.09 1038.45,2089.26 1039.31,2089.02 1040.71,2089.38"/>
    </edge>
    <edge id=":11644940310_4" function="internal">
        <lane id=":11644940310_4_0" index="0"
              disallow="tram rail_urban rail rail_electric rail_fast ship cable_car subway" speed="7.47" length="11.28"
              shape="1028.21,2070.66 1030.56,2072.64 1033.02,2073.50 1035.58,2073.22 1038.24,2071.80"/>
    </edge>
    <edge id=":11644940310_5" function="internal">
        <lane id=":11644940310_5_0" index="0"
              disallow="tram rail_urban rail rail_electric rail_fast ship cable_car subway" speed="16.67" length="22.29"
              shape="1028.21,2070.66 1043.09,2087.25"/>
        <lane id=":11644940310_5_1" index="1"
              disallow="tram rail_urban rail rail_electric rail_fast ship cable_car subway" speed="16.67" length="22.29"
              shape="1025.83,2072.80 1040.71,2089.38"/>
    </edge>
    <edge id=":11644940310_7" function="internal">
        <lane id=":11644940310_7_0" index="0"
              disallow="tram rail_urban rail rail_electric rail_fast ship cable_car subway" speed="6.17" length="8.98"
              shape="1020.15,2084.59 1022.02,2082.94 1022.81,2081.14 1022.49,2079.19 1021.07,2077.08"/>
    </edge>
    <edge id=":11644940310_8" function="internal">
        <lane id=":11644940310_8_0" index="0"
              disallow="tram rail_urban rail rail_electric rail_fast ship cable_car subway" speed="27.78" length="22.16"
              shape="1020.15,2084.59 1038.24,2071.80"/>
        <lane id=":11644940310_8_1" index="1"
              disallow="tram rail_urban rail rail_electric rail_fast ship cable_car subway" speed="27.78" length="22.16"
              shape="1022.04,2087.18 1040.13,2074.38"/>
        <lane id=":11644940310_8_2" index="2"
              disallow="tram rail_urban rail rail_electric rail_fast ship cable_car subway" speed="27.78" length="22.16"
              shape="1023.93,2089.76 1042.02,2076.97"/>
        <lane id=":11644940310_8_3" index="3"
              disallow="tram rail_urban rail rail_electric rail_fast ship cable_car subway" speed="27.78" length="22.16"
              shape="1025.82,2092.35 1043.90,2079.55"/>
    </edge>
    <edge id=":11644940310_12" function="internal">
        <lane id=":11644940310_12_0" index="0"
              disallow="tram rail_urban rail rail_electric rail_fast ship cable_car subway" speed="9.05" length="16.27"
              shape="1025.82,2092.35 1030.92,2089.47 1035.10,2088.02 1038.36,2087.99 1040.71,2089.38"/>
    </edge>
    <edge id=":11648561430_0" function="internal">
        <lane id=":11648561430_0_0" index="0"
              disallow="tram rail_urban rail rail_electric rail_fast ship cable_car subway" speed="22.23" length="0.48"
              shape="1576.05,1875.47 1576.11,1875.52 1576.15,1875.55 1576.19,1875.57 1576.25,1875.61"/>
        <lane id=":11648561430_0_1" index="1"
              disallow="tram rail_urban rail rail_electric rail_fast ship cable_car subway" speed="22.23" length="0.48"
              shape="1574.05,1877.97 1574.22,1878.10 1574.34,1878.19 1574.46,1878.27 1574.64,1878.37"/>
    </edge>
    <edge id=":11648601288_0" function="internal">
        <lane id=":11648601288_0_0" index="0"
              disallow="tram rail_urban rail rail_electric rail_fast ship cable_car subway" speed="14.62" length="6.08"
              shape="1293.83,1117.64 1292.90,1115.85 1292.23,1114.60 1291.83,1113.29 1291.70,1111.33"/>
        <lane id=":11648601288_0_1" index="1"
              disallow="tram rail_urban rail rail_electric rail_fast ship cable_car subway" speed="13.05" length="6.08"
              shape="1296.73,1116.29 1295.97,1114.88 1295.39,1113.91 1295.02,1112.89 1294.90,1111.34"/>
    </edge>
    <edge id=":12133297688_0" function="internal">
        <lane id=":12133297688_0_0" index="0"
              disallow="tram rail_urban rail rail_electric rail_fast ship cable_car subway" speed="16.66" length="0.30"
              shape="1473.53,1235.78 1473.58,1236.07"/>
        <lane id=":12133297688_0_1" index="1"
              disallow="tram rail_urban rail rail_electric rail_fast ship cable_car subway" speed="16.66" length="0.30"
              shape="1470.38,1236.37 1470.44,1236.67"/>
    </edge>
    <edge id=":1310781056-AddedOnRampNode_0" function="internal">
        <lane id=":1310781056-AddedOnRampNode_0_0" index="0"
              disallow="tram rail_urban rail rail_electric rail_fast ship cable_car subway" speed="27.78" length="8.00"
              shape="1589.94,1026.13 1584.41,1031.90"/>
        <lane id=":1310781056-AddedOnRampNode_0_1" index="1"
              disallow="tram rail_urban rail rail_electric rail_fast ship cable_car subway" speed="27.78" length="8.00"
              shape="1587.64,1023.91 1582.10,1029.68"/>
    </edge>
    <edge id=":1318793176#1-AddedOnRampNode_0" function="internal">
        <lane id=":1318793176#1-AddedOnRampNode_0_0" index="0"
              disallow="pedestrian bicycle tram rail_urban rail rail_electric rail_fast ship cable_car subway"
              speed="16.67" length="2.17"
              shape="908.27,2382.59 908.20,2382.39 908.14,2382.26 908.05,2382.14 907.91,2381.98"/>
        <lane id=":1318793176#1-AddedOnRampNode_0_1" index="1"
              disallow="pedestrian bicycle tram rail_urban rail rail_electric rail_fast ship cable_car subway"
              speed="8.26" length="2.17"
              shape="911.32,2381.63 911.12,2381.03 910.93,2380.62 910.67,2380.26 910.24,2379.79"/>
        <lane id=":1318793176#1-AddedOnRampNode_0_2" index="2"
              disallow="pedestrian bicycle tram rail_urban rail rail_electric rail_fast ship cable_car subway"
              speed="10.53" length="2.17"
              shape="914.37,2380.67 914.04,2379.66 913.73,2378.99 913.29,2378.39 912.58,2377.60"/>
    </edge>
    <edge id=":1318893695#0-AddedOffRampNode_0" function="internal">
        <lane id=":1318893695#0-AddedOffRampNode_0_0" index="0"
              disallow="pedestrian bicycle tram rail_urban rail rail_electric rail_fast ship cable_car subway"
              speed="16.67" length="7.88"
              shape="992.14,2435.10 994.55,2435.37 996.29,2434.80 998.03,2434.22 1000.44,2434.50"/>
        <lane id=":1318893695#0-AddedOffRampNode_0_1" index="1"
              disallow="pedestrian bicycle tram rail_urban rail rail_electric rail_fast ship cable_car subway"
              speed="16.67" length="7.88" shape="992.14,2435.10 999.42,2437.53"/>
        <lane id=":1318893695#0-AddedOffRampNode_0_2" index="2"
              disallow="pedestrian bicycle tram rail_urban rail rail_electric rail_fast ship cable_car subway"
              speed="16.67" length="7.88" shape="991.13,2438.13 998.40,2440.57"/>
        <lane id=":1318893695#0-AddedOffRampNode_0_3" index="3"
              disallow="pedestrian bicycle tram rail_urban rail rail_electric rail_fast ship cable_car subway"
              speed="16.67" length="7.88" shape="990.11,2441.16 997.38,2443.60"/>
    </edge>
    <edge id=":1342409420_0" function="internal">
        <lane id=":1342409420_0_0" index="0"
              disallow="tram rail_urban rail rail_electric rail_fast ship cable_car subway" speed="22.22" length="3.37"
              shape="1630.04,1872.37 1630.43,1875.72"/>
    </edge>
    <edge id=":1342409420_1" function="internal">
        <lane id=":1342409420_1_0" index="0"
              disallow="tram rail_urban rail rail_electric rail_fast ship cable_car subway" speed="22.22" length="3.32"
              shape="1626.86,1872.78 1626.99,1873.76 1627.04,1874.43 1627.02,1875.11 1626.96,1876.09"/>
    </edge>
    <edge id=":1507512148_0" function="internal">
        <lane id=":1507512148_0_0" index="0"
              disallow="tram rail_urban rail rail_electric rail_fast ship cable_car subway" speed="16.67" length="8.19"
              shape="738.54,1963.01 734.67,1970.05"/>
        <lane id=":1507512148_0_1" index="1"
              disallow="tram rail_urban rail rail_electric rail_fast ship cable_car subway" speed="16.67" length="8.19"
              shape="734.38,1960.24 733.36,1962.47 733.20,1964.26 733.04,1966.04 732.01,1968.27"/>
        <lane id=":1507512148_0_2" index="2"
              disallow="tram rail_urban rail rail_electric rail_fast ship cable_car subway" speed="16.67" length="8.19"
              shape="734.38,1960.24 732.97,1962.15 731.87,1963.36 730.77,1964.57 729.35,1966.49"/>
    </edge>
    <edge id=":1509675281_0" function="internal">
        <lane id=":1509675281_0_0" index="0"
              disallow="tram rail_urban rail rail_electric rail_fast ship cable_car subway" speed="16.67" length="3.00"
              width="3.33" shape="716.26,1954.16 717.82,1951.59"/>
        <lane id=":1509675281_0_1" index="1"
              disallow="tram rail_urban rail rail_electric rail_fast ship cable_car subway" speed="16.67" length="3.00"
              width="3.33" shape="718.93,1955.93 720.59,1953.43"/>
        <lane id=":1509675281_0_2" index="2"
              disallow="tram rail_urban rail rail_electric rail_fast ship cable_car subway" speed="16.67" length="3.00"
              width="3.33" shape="721.60,1957.70 723.36,1955.28"/>
    </edge>
    <edge id=":1846770078_0" function="internal">
        <lane id=":1846770078_0_0" index="0"
              disallow="tram rail_urban rail rail_electric rail_fast ship cable_car subway" speed="19.45" length="3.20"
              shape="1564.17,1681.05 1565.37,1684.01"/>
    </edge>
    <edge id=":1846770078_1" function="internal">
        <lane id=":1846770078_1_0" index="0"
              disallow="tram rail_urban rail rail_electric rail_fast ship cable_car subway" speed="19.45" length="2.41"
              shape="1561.17,1682.16 1561.43,1682.83 1561.61,1683.29 1561.74,1683.76 1561.87,1684.46"/>
    </edge>
    <edge id=":1846770089_0" function="internal">
        <lane id=":1846770089_0_0" index="0"
              disallow="tram rail_urban rail rail_electric rail_fast ship cable_car subway" speed="22.22" length="1.08"
              shape="1446.69,1713.27 1446.62,1713.81 1446.56,1714.17 1446.45,1714.52 1446.28,1715.03"/>
        <lane id=":1846770089_0_1" index="1"
              disallow="tram rail_urban rail rail_electric rail_fast ship cable_car subway" speed="22.22" length="1.08"
              shape="1443.52,1712.89 1443.47,1713.21 1443.43,1713.43 1443.37,1713.64 1443.27,1713.94"/>
        <lane id=":1846770089_0_2" index="2"
              disallow="tram rail_urban rail rail_electric rail_fast ship cable_car subway" speed="22.22" length="1.08"
              shape="1440.34,1712.51 1440.33,1712.61 1440.31,1712.68 1440.29,1712.75 1440.26,1712.86"/>
    </edge>
    <edge id=":1846770097_0" function="internal">
        <lane id=":1846770097_0_0" index="0"
              disallow="tram rail_urban rail rail_electric rail_fast ship cable_car subway" speed="13.89" length="20.30"
              shape="1489.27,1493.16 1489.13,1499.82 1489.74,1505.13 1490.45,1509.50 1490.64,1513.36"/>
    </edge>
    <edge id=":1846770097_1" function="internal">
        <lane id=":1846770097_1_0" index="0"
              disallow="tram rail_urban rail rail_electric rail_fast ship cable_car subway" speed="11.11" length="20.42"
              shape="1489.27,1493.16 1487.35,1513.48"/>
        <lane id=":1846770097_1_1" index="1"
              disallow="tram rail_urban rail rail_electric rail_fast ship cable_car subway" speed="11.11" length="20.42"
              shape="1486.09,1492.85 1484.16,1513.18"/>
    </edge>
    <edge id=":186409203-AddedOffRampNode_0" function="internal">
        <lane id=":186409203-AddedOffRampNode_0_0" index="0"
              disallow="tram rail_urban rail rail_electric rail_fast ship cable_car subway" speed="16.67" length="8.40"
              shape="1504.11,1599.56 1506.31,1600.77 1508.20,1600.93 1510.08,1601.09 1512.28,1602.30"/>
        <lane id=":186409203-AddedOffRampNode_0_1" index="1"
              disallow="tram rail_urban rail rail_electric rail_fast ship cable_car subway" speed="16.67" length="8.40"
              shape="1504.11,1599.56 1510.21,1604.74"/>
    </edge>
    <edge id=":189240000#0-AddedOnRampNode_0" function="internal">
        <lane id=":189240000#0-AddedOnRampNode_0_0" index="0"
              disallow="tram rail_urban rail rail_electric rail_fast ship cable_car subway" speed="16.67" length="8.00"
              shape="1361.91,1649.78 1360.98,1657.73"/>
        <lane id=":189240000#0-AddedOnRampNode_0_1" index="1"
              disallow="tram rail_urban rail rail_electric rail_fast ship cable_car subway" speed="16.67" length="8.00"
              shape="1358.73,1649.41 1357.81,1657.36"/>
        <lane id=":189240000#0-AddedOnRampNode_0_2" index="2"
              disallow="tram rail_urban rail rail_electric rail_fast ship cable_car subway" speed="16.67" length="8.00"
              shape="1355.56,1649.04 1354.63,1656.98"/>
    </edge>
    <edge id=":1955190585_0" function="internal">
        <lane id=":1955190585_0_0" index="0"
              disallow="tram rail_urban rail rail_electric rail_fast ship cable_car subway" speed="16.67" length="8.51"
              shape="1716.46,1489.19 1717.14,1491.78 1718.73,1493.31 1720.25,1494.83 1720.76,1497.40"/>
        <lane id=":1955190585_0_1" index="1"
              disallow="tram rail_urban rail rail_electric rail_fast ship cable_car subway" speed="16.67" length="8.51"
              shape="1716.46,1489.19 1716.64,1491.55 1717.12,1493.15 1717.54,1494.75 1717.57,1497.10"/>
        <lane id=":1955190585_0_2" index="2"
              disallow="tram rail_urban rail rail_electric rail_fast ship cable_car subway" speed="16.67" length="8.51"
              shape="1713.26,1489.11 1713.45,1491.40 1713.92,1492.96 1714.35,1494.51 1714.39,1496.80"/>
    </edge>
    <edge id=":1970926497_0" function="internal">
        <lane id=":1970926497_0_0" index="0"
              disallow="tram rail_urban rail rail_electric rail_fast ship cable_car subway" speed="16.67" length="6.14"
              shape="1599.16,1867.54 1601.36,1862.02"/>
        <lane id=":1970926497_0_1" index="1"
              disallow="tram rail_urban rail rail_electric rail_fast ship cable_car subway" speed="16.67" length="6.14"
              shape="1602.11,1868.79 1604.38,1863.09"/>
        <lane id=":1970926497_0_2" index="2"
              disallow="tram rail_urban rail rail_electric rail_fast ship cable_car subway" speed="16.67" length="6.14"
              shape="1605.05,1870.04 1607.39,1864.16"/>
    </edge>
    <edge id=":1998855567_0" function="internal">
        <lane id=":1998855567_0_0" index="0"
              disallow="tram rail_urban rail rail_electric rail_fast ship cable_car subway" speed="16.67" length="1.12"
              shape="1567.05,1884.67 1566.96,1884.53 1566.89,1884.44 1566.81,1884.36 1566.68,1884.26"/>
        <lane id=":1998855567_0_1" index="1"
              disallow="tram rail_urban rail rail_electric rail_fast ship cable_car subway" speed="10.51" length="1.12"
              shape="1569.78,1883.01 1569.52,1882.59 1569.31,1882.31 1569.06,1882.07 1568.68,1881.76"/>
    </edge>
    <edge id=":2271142977_0" function="internal">
        <lane id=":2271142977_0_0" index="0"
              disallow="tram rail_urban rail rail_electric rail_fast ship cable_car subway" speed="16.67" length="8.78"
              shape="1207.44,1589.51 1205.24,1588.29 1203.36,1588.13 1201.48,1587.96 1199.30,1586.72"/>
        <lane id=":2271142977_0_1" index="1"
              disallow="tram rail_urban rail rail_electric rail_fast ship cable_car subway" speed="16.67" length="8.78"
              shape="1209.51,1587.07 1207.32,1585.86 1205.44,1585.70 1203.57,1585.54 1201.40,1584.31"/>
    </edge>
    <edge id=":256036887_0" function="internal">
        <lane id=":256036887_0_0" index="0"
              disallow="tram rail_urban rail rail_electric rail_fast ship cable_car subway" speed="19.45" length="26.23"
              shape="1630.82,1840.24 1628.43,1847.95 1627.79,1853.91 1628.27,1859.47 1629.21,1865.99"/>
        <lane id=":256036887_0_1" index="1"
              disallow="tram rail_urban rail rail_electric rail_fast ship cable_car subway" speed="19.45" length="26.31"
              shape="1630.82,1840.24 1627.91,1847.93 1626.15,1853.79 1625.51,1859.24 1625.95,1865.71"/>
    </edge>
    <edge id=":256036887_2" function="internal">
        <lane id=":256036887_2_0" index="0"
              disallow="tram rail_urban rail rail_electric rail_fast ship cable_car subway" speed="16.67" length="26.33"
              shape="1630.82,1840.24 1620.79,1864.68"/>
        <lane id=":256036887_2_1" index="1"
              disallow="tram rail_urban rail rail_electric rail_fast ship cable_car subway" speed="16.67" length="26.33"
              shape="1627.83,1839.09 1617.84,1863.45"/>
        <lane id=":256036887_2_2" index="2"
              disallow="tram rail_urban rail rail_electric rail_fast ship cable_car subway" speed="16.67" length="26.33"
              shape="1624.84,1837.94 1614.88,1862.22"/>
    </edge>
    <edge id=":287884653_0" function="internal">
        <lane id=":287884653_0_0" index="0"
              disallow="tram rail_urban rail rail_electric rail_fast ship cable_car subway" speed="3.65" length="4.67"
              shape="677.07,1696.55 676.86,1695.12 677.19,1694.29 678.06,1694.05 679.45,1694.41"/>
    </edge>
    <edge id=":356721947_0" function="internal">
        <lane id=":356721947_0_0" index="0"
              disallow="tram rail_urban rail rail_electric rail_fast ship cable_car subway" speed="16.66" length="7.92"
              shape="1479.05,1579.41 1477.59,1587.20"/>
    </edge>
    <edge id=":356721947_1" function="internal">
        <lane id=":356721947_1_0" index="0"
              disallow="tram rail_urban rail rail_electric rail_fast ship cable_car subway" speed="3.65" length="1.44"
              shape="1474.46,1586.51 1475.50,1585.51"/>
    </edge>
    <edge id=":356721947_2" function="internal">
        <lane id=":356721947_2_0" index="0"
              disallow="tram rail_urban rail rail_electric rail_fast ship cable_car subway" speed="3.65" length="3.23"
              shape="1475.50,1585.51 1476.36,1585.29 1477.06,1585.85 1477.59,1587.20"/>
    </edge>
    <edge id=":356721948_0" function="internal">
        <lane id=":356721948_0_0" index="0"
              disallow="tram rail_urban rail rail_electric rail_fast ship cable_car subway" speed="22.22" length="8.49"
              shape="1472.42,1610.80 1472.15,1613.16 1472.31,1614.84 1472.42,1616.49 1471.98,1618.82"/>
        <lane id=":356721948_0_1" index="1"
              disallow="tram rail_urban rail rail_electric rail_fast ship cable_car subway" speed="22.22" length="8.49"
              shape="1472.42,1610.80 1471.67,1613.00 1470.78,1614.37 1469.83,1615.73 1468.91,1617.89"/>
        <lane id=":356721948_0_2" index="2"
              disallow="tram rail_urban rail rail_electric rail_fast ship cable_car subway" speed="22.22" length="8.49"
              shape="1472.42,1610.80 1471.17,1613.01 1469.26,1613.91 1467.29,1614.80 1465.85,1616.96"/>
    </edge>
    <edge id=":356721948_3" function="internal">
        <lane id=":356721948_3_0" index="0"
              disallow="tram rail_urban rail rail_electric rail_fast ship cable_car subway" speed="3.65" length="4.67"
              shape="1472.42,1610.80 1471.38,1611.80 1470.51,1612.02 1469.81,1611.45 1469.29,1610.11"/>
    </edge>
    <edge id=":370045989_0" function="internal">
        <lane id=":370045989_0_0" index="0"
              disallow="tram rail_urban rail rail_electric rail_fast ship cable_car subway" speed="16.67" length="0.32"
              shape="1376.70,1356.92 1376.67,1356.60"/>
        <lane id=":370045989_0_1" index="1"
              disallow="tram rail_urban rail rail_electric rail_fast ship cable_car subway" speed="16.67" length="0.32"
              shape="1379.88,1356.58 1379.85,1356.27"/>
    </edge>
    <edge id=":370045989_2" function="internal">
        <lane id=":370045989_2_0" index="0"
              disallow="tram rail_urban rail rail_electric rail_fast ship cable_car subway" speed="16.67" length="0.28"
              shape="1386.20,1355.61 1386.24,1355.88"/>
        <lane id=":370045989_2_1" index="1"
              disallow="tram rail_urban rail rail_electric rail_fast ship cable_car subway" speed="16.67" length="0.28"
              shape="1383.02,1355.94 1383.06,1356.23"/>
    </edge>
    <edge id=":370046005_0" function="internal">
        <lane id=":370046005_0_0" index="0"
              disallow="tram rail_urban rail rail_electric rail_fast ship cable_car subway" speed="16.67" length="18.88"
              shape="1557.02,1706.09 1548.96,1689.04"/>
        <lane id=":370046005_0_1" index="1"
              disallow="tram rail_urban rail rail_electric rail_fast ship cable_car subway" speed="16.67" length="18.88"
              shape="1559.94,1704.78 1551.86,1687.70"/>
    </edge>
    <edge id=":370046005_2" function="internal">
        <lane id=":370046005_2_0" index="0"
              disallow="tram rail_urban rail rail_electric rail_fast ship cable_car subway" speed="19.45" length="18.03"
              shape="1561.90,1684.66 1562.32,1688.33 1562.75,1692.20 1563.73,1696.67 1565.78,1702.16"/>
    </edge>
    <edge id=":370046005_3" function="internal">
        <lane id=":370046005_3_0" index="0"
              disallow="tram rail_urban rail rail_electric rail_fast ship cable_car subway" speed="16.67" length="18.95"
              shape="1557.67,1685.01 1565.78,1702.16"/>
        <lane id=":370046005_3_1" index="1"
              disallow="tram rail_urban rail rail_electric rail_fast ship cable_car subway" speed="16.67" length="18.95"
              shape="1554.76,1686.35 1562.86,1703.47"/>
    </edge>
    <edge id=":370046010_0" function="internal">
        <lane id=":370046010_0_0" index="0"
              disallow="tram rail_urban rail rail_electric rail_fast ship cable_car subway" speed="16.67" length="17.36"
              shape="1599.51,1809.34 1598.37,1804.36 1597.34,1801.01 1596.11,1797.71 1594.37,1792.89"/>
        <lane id=":370046010_0_1" index="1"
              disallow="tram rail_urban rail rail_electric rail_fast ship cable_car subway" speed="16.67" length="17.36"
              shape="1602.64,1808.70 1601.49,1803.65 1600.46,1800.26 1599.23,1796.93 1597.47,1792.06"/>
    </edge>
    <edge id=":370046010_2" function="internal">
        <lane id=":370046010_2_0" index="0"
              disallow="tram rail_urban rail rail_electric rail_fast ship cable_car subway" speed="3.65" length="1.44"
              shape="1602.64,1808.70 1603.19,1807.36"/>
    </edge>
    <edge id=":370046010_7" function="internal">
        <lane id=":370046010_7_0" index="0"
              disallow="tram rail_urban rail rail_electric rail_fast ship cable_car subway" speed="3.65" length="3.23"
              shape="1603.19,1807.36 1603.89,1806.81 1604.75,1807.03 1605.78,1808.05"/>
    </edge>
    <edge id=":370046010_3" function="internal">
        <lane id=":370046010_3_0" index="0"
              disallow="tram rail_urban rail rail_electric rail_fast ship cable_car subway" speed="19.45" length="17.39"
              shape="1608.08,1790.08 1607.96,1793.71 1607.84,1797.43 1608.04,1801.82 1608.91,1807.40"/>
    </edge>
    <edge id=":370046010_4" function="internal">
        <lane id=":370046010_4_0" index="0"
              disallow="tram rail_urban rail rail_electric rail_fast ship cable_car subway" speed="16.67" length="17.74"
              shape="1603.66,1790.39 1605.45,1795.37 1606.70,1798.78 1607.74,1802.25 1608.91,1807.40"/>
        <lane id=":370046010_4_1" index="1"
              disallow="tram rail_urban rail rail_electric rail_fast ship cable_car subway" speed="16.67" length="17.74"
              shape="1600.56,1791.22 1602.34,1796.15 1603.58,1799.52 1604.62,1802.95 1605.78,1808.05"/>
    </edge>
    <edge id=":370046010_6" function="internal">
        <lane id=":370046010_6_0" index="0"
              disallow="tram rail_urban rail rail_electric rail_fast ship cable_car subway" speed="3.65" length="1.45"
              shape="1600.56,1791.22 1600.10,1792.59"/>
    </edge>
    <edge id=":370046010_8" function="internal">
        <lane id=":370046010_8_0" index="0"
              disallow="tram rail_urban rail rail_electric rail_fast ship cable_car subway" speed="3.65" length="3.24"
              shape="1600.10,1792.59 1599.43,1793.19 1598.55,1793.01 1597.47,1792.06"/>
    </edge>
    <edge id=":370046021_0" function="internal">
        <lane id=":370046021_0_0" index="0"