<?xml version='1.0' encoding='utf-8'?>
<routes><vTypeDistribution id="mixed_flow1"><vType id="car_flow1" accel="1.0" decel="4.5" sigma="0.5" length="5" maxSpeed="3.81" guiShape="passenger" probability="0.9" /><vType id="bus_flow1" accel="0.8" decel="4.0" sigma="0.5" length="12" maxSpeed="3.29" guiShape="bus" probability="0.09999999999999998" /></vTypeDistribution><flow id="flow1" type="mixed_flow1" begin="0" end="67.0" number="268" from="137415945#0" to="1342054204" departPos="random" arrivalPos="random" /><vTypeDistribution id="mixed_flow2"><vType id="car_flow2" accel="1.0" decel="4.5" sigma="0.5" length="5" maxSpeed="7.7" guiShape="passenger" probability="0.9" /><vType id="bus_flow2" accel="0.8" decel="4.0" sigma="0.5" length="12" maxSpeed="6.65" guiShape="bus" probability="0.09999999999999998" /></vTypeDistribution><flow id="flow2" type="mixed_flow2" begin="0" end="31.0" number="124" from="291974733#0" to="379698350#0" departPos="random" arrivalPos="random" /><vTypeDistribution id="mixed_flow3"><vType id="car_flow3" accel="1.0" decel="4.5" sigma="0.5" length="5" maxSpeed="5.46" guiShape="passenger" probability="0.9" /><vType id="bus_flow3" accel="0.8" decel="4.0" sigma="0.5" length="12" maxSpeed="4.72" guiShape="bus" probability="0.09999999999999998" /></vTypeDistribution><flow id="flow3" type="mixed_flow3" begin="0" end="60.0" number="240" from="137415945#0" to="379698350#0" departPos="random" arrivalPos="random" /><vTypeDistribution id="mixed_flow4"><vType id="car_flow4" accel="1.0" decel="4.5" sigma="0.5" length="5" maxSpeed="8.51" guiShape="passenger" probability="0.9" /><vType id="bus_flow4" accel="0.8" decel="4.0" sigma="0.5" length="12" maxSpeed="7.35" guiShape="bus" probability="0.09999999999999998" /></vTypeDistribution><flow id="flow4" type="mixed_flow4" begin="0" end="27.0" number="108" from="1252820505#0" to="379698350#0" departPos="random" arrivalPos="random" /><vTypeDistribution id="mixed_flow5"><vType id="car_flow5" accel="1.0" decel="4.5" sigma="0.5" length="5" maxSpeed="5.27" guiShape="passenger" probability="0.9" /><vType id="bus_flow5" accel="0.8" decel="4.0" sigma="0.5" length="12" maxSpeed="4.55" guiShape="bus" probability="0.09999999999999998" /></vTypeDistribution><flow id="flow5" type="mixed_flow5" begin="0" end="48.0" number="192" from="1252820505#0" to="1235147073.116" departPos="random" arrivalPos="random" /><vTypeDistribution id="mixed_flow6"><vType id="car_flow6" accel="1.0" decel="4.5" sigma="0.5" length="5" maxSpeed="4.99" guiShape="passenger" probability="0.9" /><vType id="bus_flow6" accel="0.8" decel="4.0" sigma="0.5" length="12" maxSpeed="4.31" guiShape="bus" probability="0.09999999999999998" /></vTypeDistribution><flow id="flow6" type="mixed_flow6" begin="0" end="47.0" number="188" from="1252820505#0" to="137406408#0" departPos="random" arrivalPos="random" /><vTypeDistribution id="mixed_flow7"><vType id="car_flow7" accel="1.0" decel="4.5" sigma="0.5" length="5" maxSpeed="5.07" guiShape="passenger" probability="0.9" /><vType id="bus_flow7" accel="0.8" decel="4.0" sigma="0.5" length="12" maxSpeed="4.38" guiShape="bus" probability="0.09999999999999998" /></vTypeDistribution><flow id="flow7" type="mixed_flow7" begin="0" end="54.0" number="216" from="133000078#0" to="1342054204" departPos="random" arrivalPos="random" /><vTypeDistribution id="mixed_flow8"><vType id="car_flow8" accel="1.0" decel="4.5" sigma="0.5" length="5" maxSpeed="5.34" guiShape="passenger" probability="0.9" /><vType id="bus_flow8" accel="0.8" decel="4.0" sigma="0.5" length="12" maxSpeed="4.61" guiShape="bus" probability="0.09999999999999998" /></vTypeDistribution><flow id="flow8" type="mixed_flow8" begin="0" end="28.0" number="112" from="291974733#0" to="1342054204" departPos="random" arrivalPos="random" /><vTypeDistribution id="mixed_flow9"><vType id="car_flow9" accel="1.0" decel="4.5" sigma="0.5" length="5" maxSpeed="7.25" guiShape="passenger" probability="0.9" /><vType id="bus_flow9" accel="0.8" decel="4.0" sigma="0.5" length="12" maxSpeed="6.26" guiShape="bus" probability="0.09999999999999998" /></vTypeDistribution><flow id="flow9" type="mixed_flow9" begin="0" end="34.0" number="136" from="133000078#0" to="1235147073.116" departPos="random" arrivalPos="random" /><vTypeDistribution id="mixed_flow10"><vType id="car_flow10" accel="1.0" decel="4.5" sigma="0.5" length="5" maxSpeed="4.87" guiShape="passenger" probability="0.9" /><vType id="bus_flow10" accel="0.8" decel="4.0" sigma="0.5" length="12" maxSpeed="4.21" guiShape="bus" probability="0.09999999999999998" /></vTypeDistribution><flow id="flow10" type="mixed_flow10" begin="0" end="51.0" number="204" from="133000078#0" to="137406408#0" departPos="random" arrivalPos="random" /><vTypeDistribution id="mixed_flow11"><vType id="car_flow11" accel="1.0" decel="4.5" sigma="0.5" length="5" maxSpeed="3.67" guiShape="passenger" probability="0.9" /><vType id="bus_flow11" accel="0.8" decel="4.0" sigma="0.5" length="12" maxSpeed="3.17" guiShape="bus" probability="0.09999999999999998" /></vTypeDistribution><flow id="flow11" type="mixed_flow11" begin="0" end="59.0" number="236" from="137415945#0" to="137406408#0" departPos="random" arrivalPos="random" /></routes>