<?xml version="1.0" encoding="UTF-8"?>

<!-- generated on 2025-04-06 23:59:39 by Eclipse SUMO netconvert Version 1.20.0
<configuration xmlns:xsi="http://www.w3.org/2001/XMLSchema-instance" xsi:noNamespaceSchemaLocation="http://sumo.dlr.de/xsd/netconvertConfiguration.xsd">

    <input>
        <node-files value="nodes.xml"/>
        <edge-files value="edges.xml"/>
        <connection-files value="connections.xml"/>
    </input>

    <output>
        <output-file value="net.net.xml"/>
    </output>

</configuration>
-->

<net version="1.20" junctionCornerDetail="5" limitTurnSpeed="5.50" xmlns:xsi="http://www.w3.org/2001/XMLSchema-instance" xsi:noNamespaceSchemaLocation="http://sumo.dlr.de/xsd/net_file.xsd">

    <location netOffset="-458634.22,-4446953.33" convBoundary="0.00,0.00,1165.50,2100.76" origBoundary="458634.22,4446952.79,459799.72,4449054.09" projParameter="!"/>

    <edge id=":junc0_0" function="internal">
        <lane id=":junc0_0_0" index="0" speed="5.82" length="9.14" shape="101.93,1704.73 100.00,1702.87 98.18,1702.35 96.47,1703.15 94.85,1705.28"/>
    </edge>
    <edge id=":junc0_1" function="internal">
        <lane id=":junc0_1_0" index="0" speed="13.90" length="16.23" shape="101.93,1704.73 99.45,1701.66 96.74,1698.49 93.94,1695.39 91.20,1692.56"/>
    </edge>
    <edge id=":junc0_2" function="internal">
        <lane id=":junc0_2_0" index="0" speed="9.45" length="4.67" shape="101.93,1704.73 99.55,1700.83 99.53,1700.73"/>
    </edge>
    <edge id=":junc0_12" function="internal">
        <lane id=":junc0_12_0" index="0" speed="9.45" length="11.62" shape="99.53,1700.73 98.62,1697.04 99.15,1693.35 101.12,1689.76"/>
    </edge>
    <edge id=":junc0_3" function="internal">
        <lane id=":junc0_3_0" index="0" speed="8.19" length="12.03" shape="103.66,1691.71 102.25,1694.31 101.91,1697.01 102.64,1699.83 104.44,1702.76"/>
    </edge>
    <edge id=":junc0_4" function="internal">
        <lane id=":junc0_4_0" index="0" speed="13.90" length="16.19" shape="103.66,1691.71 101.35,1694.89 99.03,1698.35 96.83,1701.88 94.85,1705.28"/>
    </edge>
    <edge id=":junc0_5" function="internal">
        <lane id=":junc0_5_0" index="0" speed="7.79" length="4.11" shape="103.66,1691.71 100.73,1694.58"/>
    </edge>
    <edge id=":junc0_13" function="internal">
        <lane id=":junc0_13_0" index="0" speed="7.79" length="10.60" shape="100.73,1694.58 97.67,1695.68 94.50,1695.01 91.20,1692.56"/>
    </edge>
    <edge id=":junc0_6" function="internal">
        <lane id=":junc0_6_0" index="0" speed="6.24" length="9.05" shape="93.45,1690.29 95.48,1691.79 97.43,1692.21 99.31,1691.53 101.12,1689.76"/>
    </edge>
    <edge id=":junc0_7" function="internal">
        <lane id=":junc0_7_0" index="0" speed="13.90" length="16.63" shape="93.45,1690.29 96.23,1693.17 99.12,1696.37 101.92,1699.64 104.44,1702.76"/>
    </edge>
    <edge id=":junc0_8" function="internal">
        <lane id=":junc0_8_0" index="0" speed="9.54" length="4.38" shape="93.45,1690.29 95.90,1693.57 95.98,1693.85"/>
    </edge>
    <edge id=":junc0_14" function="internal">
        <lane id=":junc0_14_0" index="0" speed="9.54" length="11.93" shape="95.98,1693.85 96.95,1697.16 96.60,1701.06 94.85,1705.28"/>
    </edge>
    <edge id=":junc0_9" function="internal">
        <lane id=":junc0_9_0" index="0" speed="8.29" length="12.12" shape="92.06,1703.72 93.39,1700.54 93.69,1697.62 92.96,1694.96 91.20,1692.56"/>
    </edge>
    <edge id=":junc0_10" function="internal">
        <lane id=":junc0_10_0" index="0" speed="13.90" length="16.65" shape="92.06,1703.72 94.08,1700.26 96.36,1696.60 98.76,1693.01 101.12,1689.76"/>
    </edge>
    <edge id=":junc0_11" function="internal">
        <lane id=":junc0_11_0" index="0" speed="7.48" length="4.68" shape="92.06,1703.72 94.88,1699.99"/>
    </edge>
    <edge id=":junc0_15" function="internal">
        <lane id=":junc0_15_0" index="0" speed="7.48" length="11.32" shape="94.88,1699.99 97.89,1698.58 101.08,1699.51 104.44,1702.76"/>
    </edge>
    <edge id=":junc1_0" function="internal">
        <lane id=":junc1_0_0" index="0" speed="10.61" length="16.08" shape="205.15,1814.97 202.66,1812.36 199.42,1810.65 195.43,1809.86 190.69,1809.99"/>
    </edge>
    <edge id=":junc1_1" function="internal">
        <lane id=":junc1_1_0" index="0" speed="13.90" length="19.16" shape="205.15,1814.97 202.46,1811.51 199.01,1807.64 195.38,1803.93 192.16,1800.93"/>
    </edge>
    <edge id=":junc1_2" function="internal">
        <lane id=":junc1_2_0" index="0" speed="7.55" length="3.58" shape="205.15,1814.97 203.56,1811.77"/>
    </edge>
    <edge id=":junc1_12" function="internal">
        <lane id=":junc1_12_0" index="0" speed="7.55" length="12.00" shape="203.56,1811.77 203.15,1810.96 203.18,1807.66 205.24,1805.08 209.32,1803.22"/>
    </edge>
    <edge id=":junc1_3" function="internal">
        <lane id=":junc1_3_0" index="0" speed="5.93" length="9.10" shape="210.22,1806.30 207.84,1807.38 206.63,1808.88 206.62,1810.81 207.79,1813.16"/>
    </edge>
    <edge id=":junc1_4" function="internal">
        <lane id=":junc1_4_0" index="0" speed="13.90" length="19.89" shape="210.22,1806.30 205.85,1807.39 200.52,1808.46 195.16,1809.37 190.69,1809.99"/>
    </edge>
    <edge id=":junc1_5" function="internal">
        <lane id=":junc1_5_0" index="0" speed="12.16" length="5.10" shape="210.22,1806.30 206.16,1806.57 205.16,1806.37"/>
    </edge>
    <edge id=":junc1_6" function="internal">
        <lane id=":junc1_6_0" index="0" speed="3.65" length="1.44" shape="210.22,1806.30 208.85,1805.87"/>
    </edge>
    <edge id=":junc1_13" function="internal">
        <lane id=":junc1_13_0" index="0" speed="12.16" length="14.25" shape="205.16,1806.37 201.23,1805.60 196.28,1803.64 192.16,1800.93"/>
    </edge>
    <edge id=":junc1_14" function="internal">
        <lane id=":junc1_14_0" index="0" speed="3.65" length="3.23" shape="208.85,1805.87 208.24,1805.21 208.40,1804.33 209.32,1803.22"/>
    </edge>
    <edge id=":junc1_7" function="internal">
        <lane id=":junc1_7_0" index="0" speed="11.24" length="16.45" shape="194.27,1798.52 198.14,1801.37 201.94,1803.11 205.67,1803.73 209.32,1803.22"/>
    </edge>
    <edge id=":junc1_8" function="internal">
        <lane id=":junc1_8_0" index="0" speed="13.90" length="19.95" shape="194.27,1798.52 197.57,1801.62 201.38,1805.53 205.01,1809.60 207.79,1813.16"/>
    </edge>
    <edge id=":junc1_9" function="internal">
        <lane id=":junc1_9_0" index="0" speed="5.50" length="9.61" shape="190.33,1806.81 193.29,1806.12 194.58,1804.91 194.20,1803.18 192.16,1800.93"/>
    </edge>
    <edge id=":junc1_10" function="internal">
        <lane id=":junc1_10_0" index="0" speed="13.90" length="19.34" shape="190.33,1806.81 194.72,1806.21 199.89,1805.33 205.03,1804.30 209.32,1803.22"/>
    </edge>
    <edge id=":junc1_11" function="internal">
        <lane id=":junc1_11_0" index="0" speed="11.54" length="5.63" shape="190.33,1806.81 195.24,1806.97 195.93,1807.14"/>
    </edge>
    <edge id=":junc1_15" function="internal">
        <lane id=":junc1_15_0" index="0" speed="11.54" length="13.55" shape="195.93,1807.14 200.33,1808.28 204.79,1810.44 207.79,1813.16"/>
    </edge>
    <edge id=":junc10_0" function="internal">
        <lane id=":junc10_0_0" index="0" speed="6.35" length="9.04" shape="715.01,1645.90 713.13,1644.25 711.21,1643.65 709.24,1644.09 707.23,1645.58"/>
    </edge>
    <edge id=":junc10_1" function="internal">
        <lane id=":junc10_1_0" index="0" speed="13.90" length="14.70" shape="715.01,1645.90 712.56,1643.12 710.07,1640.46 707.49,1637.89 704.79,1635.35"/>
    </edge>
    <edge id=":junc10_2" function="internal">
        <lane id=":junc10_2_0" index="0" speed="7.53" length="10.48" shape="717.22,1634.26 715.82,1636.69 715.39,1639.09 715.93,1641.47 717.44,1643.82"/>
    </edge>
    <edge id=":junc10_3" function="internal">
        <lane id=":junc10_3_0" index="0" speed="13.90" length="15.11" shape="717.22,1634.26 714.87,1637.20 712.41,1640.08 709.86,1642.88 707.23,1645.58"/>
    </edge>
    <edge id=":junc10_4" function="internal">
        <lane id=":junc10_4_0" index="0" speed="7.86" length="4.28" shape="717.22,1634.26 714.33,1637.06 714.10,1637.15"/>
    </edge>
    <edge id=":junc10_10" function="internal">
        <lane id=":junc10_10_0" index="0" speed="7.86" length="10.24" shape="714.10,1637.15 711.30,1638.18 708.12,1637.61 704.79,1635.35"/>
    </edge>
    <edge id=":junc10_5" function="internal">
        <lane id=":junc10_5_0" index="0" speed="13.90" length="15.10" shape="706.94,1632.99 709.69,1635.56 712.36,1638.24 714.95,1641.00 717.44,1643.82"/>
    </edge>
    <edge id=":junc10_6" function="internal">
        <lane id=":junc10_6_0" index="0" speed="6.45" length="9.18" shape="704.98,1643.31 706.50,1641.29 706.97,1639.29 706.40,1637.31 704.79,1635.35"/>
    </edge>
    <edge id=":junc10_7" function="internal">
        <lane id=":junc10_7_0" index="0" speed="13.90" length="14.69" shape="704.98,1643.31 707.56,1640.66 710.02,1637.97 712.38,1635.20 714.69,1632.30"/>
    </edge>
    <edge id=":junc10_8" function="internal">
        <lane id=":junc10_8_0" index="0" speed="7.87" length="4.01" shape="704.98,1643.31 708.20,1640.92"/>
    </edge>
    <edge id=":junc10_9" function="internal">
        <lane id=":junc10_9_0" index="0" speed="3.65" length="1.44" shape="704.98,1643.31 706.39,1643.03"/>
    </edge>
    <edge id=":junc10_11" function="internal">
        <lane id=":junc10_11_0" index="0" speed="7.87" length="10.47" shape="708.20,1640.92 711.35,1640.21 714.43,1641.18 717.44,1643.82"/>
    </edge>
    <edge id=":junc10_12" function="internal">
        <lane id=":junc10_12_0" index="0" speed="3.65" length="3.23" shape="706.39,1643.03 707.24,1643.32 707.52,1644.17 707.23,1645.58"/>
    </edge>
    <edge id=":junc11_0" function="internal">
        <lane id=":junc11_0_0" index="0" speed="6.23" length="9.05" shape="855.92,1802.40 854.02,1800.73 852.11,1800.15 850.19,1800.67 848.25,1802.30"/>
    </edge>
    <edge id=":junc11_1" function="internal">
        <lane id=":junc11_1_0" index="0" speed="13.90" length="14.92" shape="855.92,1802.40 845.99,1791.26"/>
    </edge>
    <edge id=":junc11_2" function="internal">
        <lane id=":junc11_2_0" index="0" speed="8.45" length="4.08" shape="855.92,1802.40 853.72,1798.96"/>
    </edge>
    <edge id=":junc11_10" function="internal">
        <lane id=":junc11_10_0" index="0" speed="8.45" length="10.74" shape="853.72,1798.96 853.03,1795.60 853.85,1792.33 856.17,1789.15"/>
    </edge>
    <edge id=":junc11_3" function="internal">
        <lane id=":junc11_3_0" index="0" speed="7.05" length="10.00" shape="858.46,1791.39 856.91,1793.52 856.38,1795.73 856.86,1798.00 858.36,1800.34"/>
    </edge>
    <edge id=":junc11_4" function="internal">
        <lane id=":junc11_4_0" index="0" speed="13.90" length="14.93" shape="858.46,1791.39 848.25,1802.30"/>
    </edge>
    <edge id=":junc11_5" function="internal">
        <lane id=":junc11_5_0" index="0" speed="6.42" length="9.04" shape="848.32,1789.07 850.27,1790.62 852.23,1791.16 854.19,1790.66 856.17,1789.15"/>
    </edge>
    <edge id=":junc11_6" function="internal">
        <lane id=":junc11_6_0" index="0" speed="13.90" length="15.09" shape="848.32,1789.07 858.36,1800.34"/>
    </edge>
    <edge id=":junc11_7" function="internal">
        <lane id=":junc11_7_0" index="0" speed="7.02" length="9.97" shape="845.87,1800.16 847.43,1797.87 847.97,1795.62 847.49,1793.42 845.99,1791.26"/>
    </edge>
    <edge id=":junc11_8" function="internal">
        <lane id=":junc11_8_0" index="0" speed="13.90" length="15.08" shape="845.87,1800.16 856.17,1789.15"/>
    </edge>
    <edge id=":junc11_9" function="internal">
        <lane id=":junc11_9_0" index="0" speed="7.77" length="4.37" shape="845.87,1800.16 849.03,1797.51 849.26,1797.45"/>
    </edge>
    <edge id=":junc11_11" function="internal">
        <lane id=":junc11_11_0" index="0" speed="7.77" length="10.38" shape="849.26,1797.45 852.16,1796.66 855.27,1797.60 858.36,1800.34"/>
    </edge>
    <edge id=":junc12_0" function="internal">
        <lane id=":junc12_0_0" index="0" speed="6.73" length="9.58" shape="581.00,1126.62 578.85,1125.23 576.73,1124.87 574.64,1125.54 572.58,1127.24"/>
    </edge>
    <edge id=":junc12_1" function="internal">
        <lane id=":junc12_1_0" index="0" speed="13.90" length="14.77" shape="581.00,1126.62 578.19,1124.20 575.34,1121.87 572.45,1119.61 569.47,1117.40"/>
    </edge>
    <edge id=":junc12_2" function="internal">
        <lane id=":junc12_2_0" index="0" speed="7.93" length="3.96" shape="581.00,1126.62 578.43,1123.61"/>
    </edge>
    <edge id=":junc12_11" function="internal">
        <lane id=":junc12_11_0" index="0" speed="7.93" length="10.40" shape="578.43,1123.61 577.49,1120.53 578.17,1117.38 580.48,1114.17"/>
    </edge>
    <edge id=":junc12_3" function="internal">
        <lane id=":junc12_3_0" index="0" speed="6.42" length="9.04" shape="582.79,1116.38 581.34,1118.41 580.91,1120.39 581.50,1122.33 583.12,1124.22"/>
    </edge>
    <edge id=":junc12_4" function="internal">
        <lane id=":junc12_4_0" index="0" speed="13.90" length="14.90" shape="582.79,1116.38 572.58,1127.24"/>
    </edge>
    <edge id=":junc12_5" function="internal">
        <lane id=":junc12_5_0" index="0" speed="7.21" length="10.15" shape="571.35,1114.81 573.80,1116.14 576.14,1116.47 578.36,1115.81 580.48,1114.17"/>
    </edge>
    <edge id=":junc12_6" function="internal">
        <lane id=":junc12_6_0" index="0" speed="13.90" length="15.07" shape="571.35,1114.81 574.37,1117.06 577.34,1119.38 580.26,1121.77 583.12,1124.22"/>
    </edge>
    <edge id=":junc12_7" function="internal">
        <lane id=":junc12_7_0" index="0" speed="7.81" length="4.27" shape="571.35,1114.81 574.28,1117.66 574.34,1117.83"/>
    </edge>
    <edge id=":junc12_12" function="internal">
        <lane id=":junc12_12_0" index="0" speed="7.81" length="10.38" shape="574.34,1117.83 575.46,1120.68 574.89,1123.87 572.58,1127.24"/>
    </edge>
    <edge id=":junc12_8" function="internal">
        <lane id=":junc12_8_0" index="0" speed="6.27" length="9.04" shape="570.23,1125.07 571.65,1122.99 572.00,1121.02 571.28,1119.15 569.47,1117.40"/>
    </edge>
    <edge id=":junc12_9" function="internal">
        <lane id=":junc12_9_0" index="0" speed="13.90" length="14.96" shape="570.23,1125.07 580.48,1114.17"/>
    </edge>
    <edge id=":junc12_10" function="internal">
        <lane id=":junc12_10_0" index="0" speed="8.19" length="4.32" shape="570.23,1125.07 573.36,1122.49 573.61,1122.41"/>
    </edge>
    <edge id=":junc12_13" function="internal">
        <lane id=":junc12_13_0" index="0" speed="8.19" length="10.34" shape="573.61,1122.41 576.55,1121.49 579.80,1122.07 583.12,1124.22"/>
    </edge>
    <edge id=":junc13_0" function="internal">
        <lane id=":junc13_0_0" index="0" speed="13.90" length="17.05" shape="799.70,1308.82 786.63,1297.88"/>
    </edge>
    <edge id=":junc13_1" function="internal">
        <lane id=":junc13_1_0" index="0" speed="11.03" length="4.31" shape="799.70,1308.82 796.88,1305.57"/>
    </edge>
    <edge id=":junc13_9" function="internal">
        <lane id=":junc13_9_0" index="0" speed="11.03" length="12.95" shape="796.88,1305.57 795.20,1301.85 794.64,1297.68 795.22,1293.06"/>
    </edge>
    <edge id=":junc13_2" function="internal">
        <lane id=":junc13_2_0" index="0" speed="9.91" length="13.81" shape="798.33,1293.79 797.86,1297.53 798.28,1300.88 799.61,1303.85 801.84,1306.44"/>
    </edge>
    <edge id=":junc13_3" function="internal">
        <lane id=":junc13_3_0" index="0" speed="7.45" length="16.24" shape="798.33,1293.79 796.61,1298.26 794.09,1300.43 790.76,1300.30 786.63,1297.88"/>
    </edge>
    <edge id=":junc13_4" function="internal">
        <lane id=":junc13_4_0" index="0" speed="5.77" length="9.16" shape="788.61,1295.36 790.94,1296.73 792.82,1296.80 794.25,1295.58 795.22,1293.06"/>
    </edge>
    <edge id=":junc13_5" function="internal">
        <lane id=":junc13_5_0" index="0" speed="13.90" length="17.25" shape="788.61,1295.36 801.84,1306.44"/>
    </edge>
    <edge id=":junc13_6" function="internal">
        <lane id=":junc13_6_0" index="0" speed="8.06" length="12.30" shape="789.55,1308.70 790.54,1305.75 790.39,1302.97 789.08,1300.34 786.63,1297.88"/>
    </edge>
    <edge id=":junc13_7" function="internal">
        <lane id=":junc13_7_0" index="0" speed="13.90" length="16.67" shape="789.55,1308.70 791.25,1305.06 792.82,1301.04 794.17,1296.93 795.22,1293.06"/>
    </edge>
    <edge id=":junc13_8" function="internal">
        <lane id=":junc13_8_0" index="0" speed="7.62" length="15.25" shape="789.55,1308.70 792.08,1305.16 794.97,1303.60 798.22,1304.03 801.84,1306.44"/>
    </edge>
    <edge id=":junc14_0" function="internal">
        <lane id=":junc14_0_0" index="0" speed="6.01" length="9.08" shape="884.44,1377.73 882.27,1376.32 880.34,1376.08 878.64,1377.03 877.18,1379.17"/>
    </edge>
    <edge id=":junc14_1" function="internal">
        <lane id=":junc14_1_0" index="0" speed="13.90" length="17.11" shape="884.44,1377.73 871.10,1367.02"/>
    </edge>
    <edge id=":junc14_2" function="internal">
        <lane id=":junc14_2_0" index="0" speed="13.90" length="17.58" shape="882.63,1362.50 881.69,1366.55 880.38,1371.00 878.83,1375.37 877.18,1379.17"/>
    </edge>
    <edge id=":junc14_3" function="internal">
        <lane id=":junc14_3_0" index="0" speed="13.90" length="17.39" shape="873.00,1364.45 886.56,1375.33"/>
    </edge>
    <edge id=":junc14_4" function="internal">
        <lane id=":junc14_4_0" index="0" speed="9.29" length="5.34" shape="873.00,1364.45 876.40,1367.69 876.70,1368.26"/>
    </edge>
    <edge id=":junc14_9" function="internal">
        <lane id=":junc14_9_0" index="0" speed="9.29" length="11.51" shape="876.70,1368.26 878.24,1371.22 878.49,1375.05 877.18,1379.17"/>
    </edge>
    <edge id=":junc14_5" function="internal">
        <lane id=":junc14_5_0" index="0" speed="8.02" length="12.33" shape="874.31,1377.76 875.24,1374.79 875.02,1372.01 873.64,1369.42 871.10,1367.02"/>
    </edge>
    <edge id=":junc14_6" function="internal">
        <lane id=":junc14_6_0" index="0" speed="13.90" length="16.72" shape="874.31,1377.76 875.92,1374.08 877.38,1369.99 878.59,1365.82 879.48,1361.90"/>
    </edge>
    <edge id=":junc14_7" function="internal">
        <lane id=":junc14_7_0" index="0" speed="7.61" length="3.76" shape="874.31,1377.76 876.43,1374.65"/>
    </edge>
    <edge id=":junc14_8" function="internal">
        <lane id=":junc14_8_0" index="0" speed="3.65" length="1.44" shape="874.31,1377.76 875.56,1377.03"/>
    </edge>
    <edge id=":junc14_10" function="internal">
        <lane id=":junc14_10_0" index="0" speed="7.61" length="11.54" shape="876.43,1374.65 876.78,1374.15 879.64,1372.55 882.90,1372.94 886.56,1375.33"/>
    </edge>
    <edge id=":junc14_11" function="internal">
        <lane id=":junc14_11_0" index="0" speed="3.65" length="3.23" shape="875.56,1377.03 876.45,1377.03 876.99,1377.74 877.18,1379.17"/>
    </edge>
    <edge id=":junc15_0" function="internal">
        <lane id=":junc15_0_0" index="0" speed="5.50" length="9.58" shape="1048.30,1519.50 1047.01,1516.77 1045.55,1515.76 1043.93,1516.47 1042.13,1518.89"/>
    </edge>
    <edge id=":junc15_1" function="internal">
        <lane id=":junc15_1_0" index="0" speed="13.90" length="20.13" shape="1048.30,1519.50 1047.25,1515.06 1046.60,1509.56 1046.50,1504.04 1047.11,1499.57"/>
    </edge>
    <edge id=":junc15_2" function="internal">
        <lane id=":junc15_2_0" index="0" speed="13.90" length="18.26" shape="1050.19,1500.43 1049.57,1504.62 1049.65,1509.48 1050.29,1514.34 1051.33,1518.48"/>
    </edge>
    <edge id=":junc15_3" function="internal">
        <lane id=":junc15_3_0" index="0" speed="13.90" length="20.17" shape="1050.19,1500.43 1048.70,1504.74 1046.58,1509.84 1044.25,1514.85 1042.13,1518.89"/>
    </edge>
    <edge id=":junc15_4" function="internal">
        <lane id=":junc15_4_0" index="0" speed="5.83" length="9.13" shape="1040.34,1501.79 1042.65,1503.12 1044.55,1503.19 1046.03,1502.01 1047.11,1499.57"/>
    </edge>
    <edge id=":junc15_5" function="internal">
        <lane id=":junc15_5_0" index="0" speed="13.90" length="20.14" shape="1040.34,1501.79 1043.50,1505.02 1046.72,1509.51 1049.50,1514.30 1051.33,1518.48"/>
    </edge>
    <edge id=":junc15_6" function="internal">
        <lane id=":junc15_6_0" index="0" speed="8.50" length="14.38" shape="1039.35,1517.31 1041.11,1513.32 1041.53,1509.82 1040.62,1506.82 1038.38,1504.31"/>
    </edge>
    <edge id=":junc15_7" function="internal">
        <lane id=":junc15_7_0" index="0" speed="13.90" length="19.39" shape="1039.35,1517.31 1041.42,1513.38 1043.65,1508.61 1045.67,1503.76 1047.11,1499.57"/>
    </edge>
    <edge id=":junc15_8" function="internal">
        <lane id=":junc15_8_0" index="0" speed="7.39" length="4.61" shape="1039.35,1517.31 1042.09,1513.60"/>
    </edge>
    <edge id=":junc15_9" function="internal">
        <lane id=":junc15_9_0" index="0" speed="7.39" length="14.01" shape="1042.09,1513.60 1042.84,1512.59 1046.00,1511.22 1048.83,1513.18 1051.33,1518.48"/>
    </edge>
    <edge id=":junc16_0" function="internal">
        <lane id=":junc16_0_0" index="0" speed="5.47" length="9.78" shape="807.93,884.17 807.49,881.06 806.41,879.68 804.69,880.02 802.33,882.09"/>
    </edge>
    <edge id=":junc16_1" function="internal">
        <lane id=":junc16_1_0" index="0" speed="13.90" length="20.00" shape="807.93,884.17 807.60,879.65 806.89,874.22 805.90,868.84 804.71,864.48"/>
    </edge>
    <edge id=":junc16_2" function="internal">
        <lane id=":junc16_2_0" index="0" speed="13.88" length="5.39" shape="807.93,884.17 808.40,878.98 808.45,878.81"/>
    </edge>
    <edge id=":junc16_12" function="internal">
        <lane id=":junc16_12_0" index="0" speed="13.88" length="15.17" shape="808.45,878.81 809.87,873.49 812.05,868.57 814.61,865.13"/>
    </edge>
    <edge id=":junc16_3" function="internal">
        <lane id=":junc16_3_0" index="0" speed="13.02" length="18.05" shape="816.76,867.49 814.17,870.57 812.37,874.35 811.36,878.86 811.13,884.07"/>
    </edge>
    <edge id=":junc16_4" function="internal">
        <lane id=":junc16_4_0" index="0" speed="13.90" length="20.53" shape="816.76,867.49 813.42,870.68 809.42,874.67 805.49,878.73 802.33,882.09"/>
    </edge>
    <edge id=":junc16_5" function="internal">
        <lane id=":junc16_5_0" index="0" speed="7.48" length="4.42" shape="816.76,867.49 813.11,869.99"/>
    </edge>
    <edge id=":junc16_13" function="internal">
        <lane id=":junc16_13_0" index="0" speed="7.48" length="11.57" shape="813.11,869.99 812.90,870.14 809.60,870.51 806.87,868.63 804.71,864.48"/>
    </edge>
    <edge id=":junc16_6" function="internal">
        <lane id=":junc16_6_0" index="0" speed="5.82" length="9.14" shape="807.72,863.41 808.96,865.78 810.52,866.85 812.40,866.64 814.61,865.13"/>
    </edge>
    <edge id=":junc16_7" function="internal">
        <lane id=":junc16_7_0" index="0" speed="13.90" length="20.99" shape="807.72,863.41 808.94,867.92 810.00,873.63 810.77,879.40 811.13,884.07"/>
    </edge>
    <edge id=":junc16_8" function="internal">
        <lane id=":junc16_8_0" index="0" speed="11.78" length="5.60" shape="807.72,863.41 808.18,867.60 807.94,868.96"/>
    </edge>
    <edge id=":junc16_9" function="internal">
        <lane id=":junc16_9_0" index="0" speed="3.65" length="1.44" shape="807.72,863.41 807.37,864.81"/>
    </edge>
    <edge id=":junc16_14" function="internal">
        <lane id=":junc16_14_0" index="0" speed="11.78" length="14.47" shape="807.94,868.96 807.27,872.70 805.23,877.82 802.33,882.09"/>
    </edge>
    <edge id=":junc16_15" function="internal">
        <lane id=":junc16_15_0" index="0" speed="3.65" length="3.23" shape="807.37,864.81 806.75,865.45 805.86,865.34 804.71,864.48"/>
    </edge>
    <edge id=":junc16_10" function="internal">
        <lane id=":junc16_10_0" index="0" speed="10.87" length="16.99" shape="799.97,879.93 803.03,875.94 804.84,872.04 805.40,868.22 804.71,864.48"/>
    </edge>
    <edge id=":junc16_11" function="internal">
        <lane id=":junc16_11_0" index="0" speed="13.90" length="20.82" shape="799.97,879.93 803.16,876.53 807.17,872.41 811.23,868.34 814.61,865.13"/>
    </edge>
    <edge id=":junc17_0" function="internal">
        <lane id=":junc17_0_0" index="0" speed="13.90" length="0.31" shape="774.63,742.20 774.61,742.11 774.59,742.05 774.57,741.99 774.53,741.91"/>
    </edge>
    <edge id=":junc17_1" function="internal">
        <lane id=":junc17_1_0" index="0" speed="13.90" length="0.92" shape="777.46,740.63 777.57,740.88 777.64,741.05 777.69,741.23 777.75,741.50"/>
    </edge>
    <edge id=":junc18_0" function="internal">
        <lane id=":junc18_0_0" index="0" speed="5.54" length="9.45" shape="908.09,786.55 907.32,783.71 906.06,782.45 904.29,782.75 902.03,784.61"/>
    </edge>
    <edge id=":junc18_1" function="internal">
        <lane id=":junc18_1_0" index="0" speed="13.90" length="19.67" shape="908.09,786.55 907.34,782.13 906.25,776.89 905.02,771.68 903.81,767.36"/>
    </edge>
    <edge id=":junc18_2" function="internal">
        <lane id=":junc18_2_0" index="0" speed="13.17" length="5.41" shape="908.09,786.55 908.10,781.78 908.23,781.15"/>
    </edge>
    <edge id=":junc18_3" function="internal">
        <lane id=":junc18_3_0" index="0" speed="3.65" length="1.44" shape="908.09,786.55 908.71,785.25"/>
    </edge>
    <edge id=":junc18_13" function="internal">
        <lane id=":junc18_13_0" index="0" speed="13.17" length="14.40" shape="908.23,781.15 909.19,776.50 911.08,771.60 913.52,767.94"/>
    </edge>
    <edge id=":junc18_14" function="internal">
        <lane id=":junc18_14_0" index="0" speed="3.65" length="3.23" shape="908.71,785.25 909.45,784.74 910.29,785.02 911.25,786.10"/>
    </edge>
    <edge id=":junc18_4" function="internal">
        <lane id=":junc18_4_0" index="0" speed="12.28" length="17.18" shape="915.83,770.16 913.31,773.48 911.71,777.24 911.02,781.45 911.25,786.10"/>
    </edge>
    <edge id=":junc18_5" function="internal">
        <lane id=":junc18_5_0" index="0" speed="13.90" length="19.98" shape="915.83,770.16 902.03,784.61"/>
    </edge>
    <edge id=":junc18_6" function="internal">
        <lane id=":junc18_6_0" index="0" speed="7.42" length="4.83" shape="915.83,770.16 912.04,773.17"/>
    </edge>
    <edge id=":junc18_15" function="internal">
        <lane id=":junc18_15_0" index="0" speed="7.42" length="11.78" shape="912.04,773.17 911.94,773.25 908.65,773.81 905.93,771.85 903.81,767.36"/>
    </edge>
    <edge id=":junc18_7" function="internal">
        <lane id=":junc18_7_0" index="0" speed="5.70" length="9.21" shape="906.86,766.39 908.04,768.88 909.54,769.97 911.37,769.65 913.52,767.94"/>
    </edge>
    <edge id=":junc18_8" function="internal">
        <lane id=":junc18_8_0" index="0" speed="13.90" length="20.21" shape="906.86,766.39 908.09,770.79 909.36,776.18 910.49,781.60 911.25,786.10"/>
    </edge>
    <edge id=":junc18_9" function="internal">
        <lane id=":junc18_9_0" index="0" speed="11.71" length="5.52" shape="906.86,766.39 907.33,770.72 907.14,771.88"/>
    </edge>
    <edge id=":junc18_16" function="internal">
        <lane id=":junc18_16_0" index="0" speed="11.71" length="13.93" shape="907.14,771.88 906.52,775.77 904.68,780.69 902.03,784.61"/>
    </edge>
    <edge id=":junc18_10" function="internal">
        <lane id=":junc18_10_0" index="0" speed="10.78" length="16.40" shape="899.71,782.41 902.46,778.84 904.06,775.14 904.51,771.32 903.81,767.36"/>
    </edge>
    <edge id=":junc18_11" function="internal">
        <lane id=":junc18_11_0" index="0" speed="13.90" length="20.00" shape="899.71,782.41 913.52,767.94"/>
    </edge>
    <edge id=":junc18_12" function="internal">
        <lane id=":junc18_12_0" index="0" speed="7.38" length="5.47" shape="899.71,782.41 903.93,778.93"/>
    </edge>
    <edge id=":junc18_17" function="internal">
        <lane id=":junc18_17_0" index="0" speed="7.38" length="12.55" shape="903.93,778.93 904.03,778.85 907.39,778.28 909.80,780.70 911.25,786.10"/>
    </edge>
    <edge id=":junc19_0" function="internal">
        <lane id=":junc19_0_0" index="0" speed="5.51" length="9.55" shape="1124.53,564.54 1123.96,561.60 1122.79,560.26 1121.03,560.52 1118.69,562.39"/>
    </edge>
    <edge id=":junc19_1" function="internal">
        <lane id=":junc19_1_0" index="0" speed="13.90" length="16.43" shape="1124.53,564.54 1124.25,560.57 1124.00,556.34 1123.86,552.10 1123.89,548.13"/>
    </edge>
    <edge id=":junc19_2" function="internal">
        <lane id=":junc19_2_0" index="0" speed="13.90" length="16.07" shape="1127.09,548.24 1127.06,552.16 1127.20,556.27 1127.44,560.39 1127.73,564.30"/>
    </edge>
    <edge id=":junc19_3" function="internal">
        <lane id=":junc19_3_0" index="0" speed="13.90" length="16.76" shape="1127.09,548.24 1126.19,552.06 1124.14,555.86 1121.46,559.38 1118.69,562.39"/>
    </edge>
    <edge id=":junc19_4" function="internal">
        <lane id=":junc19_4_0" index="0" speed="13.02" length="14.49" shape="1116.41,560.14 1119.04,557.46 1121.40,554.67 1123.14,551.61 1123.89,548.13"/>
    </edge>
    <edge id=":junc19_5" function="internal">
        <lane id=":junc19_5_0" index="0" speed="7.39" length="18.48" shape="1116.41,560.14 1120.95,556.52 1124.35,556.01 1126.61,558.60 1127.73,564.30"/>
    </edge>
    <edge id=":junc2_0" function="internal">
        <lane id=":junc2_0_0" index="0" speed="10.17" length="15.23" shape="291.31,1907.72 288.63,1905.31 285.41,1903.89 281.65,1903.47 277.37,1904.04"/>
    </edge>
    <edge id=":junc2_1" function="internal">
        <lane id=":junc2_1_0" index="0" speed="13.90" length="18.57" shape="291.31,1907.72 288.44,1904.51 284.96,1900.95 281.37,1897.51 278.15,1894.65"/>
    </edge>
    <edge id=":junc2_2" function="internal">