<?xml version="1.0" encoding="UTF-8"?>

<!-- generated on 2025-04-07 14:19:26 by Eclipse SUMO netconvert Version 1.20.0
<configuration xmlns:xsi="http://www.w3.org/2001/XMLSchema-instance" xsi:noNamespaceSchemaLocation="http://sumo.dlr.de/xsd/netconvertConfiguration.xsd">

    <input>
        <node-files value="nodes.xml"/>
        <edge-files value="edges_filtered.xml"/>
        <connection-files value="connections.xml"/>
    </input>

    <output>
        <output-file value="net.net.xml"/>
    </output>

</configuration>
-->

<net version="1.20" junctionCornerDetail="5" limitTurnSpeed="5.50" xmlns:xsi="http://www.w3.org/2001/XMLSchema-instance" xsi:noNamespaceSchemaLocation="http://sumo.dlr.de/xsd/net_file.xsd">

    <location netOffset="-458634.22,-4446953.33" convBoundary="0.00,0.00,1165.50,2100.76" origBoundary="458634.22,4446952.79,459799.72,4449054.09" projParameter="!"/>

    <edge id=":junc0_0" function="internal">
        <lane id=":junc0_0_0" index="0" speed="5.82" length="9.14" shape="101.93,1704.73 100.00,1702.87 98.18,1702.35 96.47,1703.15 94.85,1705.28"/>
    </edge>
    <edge id=":junc0_1" function="internal">
        <lane id=":junc0_1_0" index="0" speed="13.90" length="16.23" shape="101.93,1704.73 99.45,1701.66 96.74,1698.49 93.94,1695.39 91.20,1692.56"/>
    </edge>
    <edge id=":junc0_2" function="internal">
        <lane id=":junc0_2_0" index="0" speed="9.45" length="4.67" shape="101.93,1704.73 99.55,1700.83 99.53,1700.73"/>
    </edge>
    <edge id=":junc0_12" function="internal">
        <lane id=":junc0_12_0" index="0" speed="9.45" length="11.62" shape="99.53,1700.73 98.62,1697.04 99.15,1693.35 101.12,1689.76"/>
    </edge>
    <edge id=":junc0_3" function="internal">
        <lane id=":junc0_3_0" index="0" speed="8.19" length="12.03" shape="103.66,1691.71 102.25,1694.31 101.91,1697.01 102.64,1699.83 104.44,1702.76"/>
    </edge>
    <edge id=":junc0_4" function="internal">
        <lane id=":junc0_4_0" index="0" speed="13.90" length="16.19" shape="103.66,1691.71 101.35,1694.89 99.03,1698.35 96.83,1701.88 94.85,1705.28"/>
    </edge>
    <edge id=":junc0_5" function="internal">
        <lane id=":junc0_5_0" index="0" speed="7.79" length="4.11" shape="103.66,1691.71 100.73,1694.58"/>
    </edge>
    <edge id=":junc0_13" function="internal">
        <lane id=":junc0_13_0" index="0" speed="7.79" length="10.60" shape="100.73,1694.58 97.67,1695.68 94.50,1695.01 91.20,1692.56"/>
    </edge>
    <edge id=":junc0_6" function="internal">
        <lane id=":junc0_6_0" index="0" speed="6.24" length="9.05" shape="93.45,1690.29 95.48,1691.79 97.43,1692.21 99.31,1691.53 101.12,1689.76"/>
    </edge>
    <edge id=":junc0_7" function="internal">
        <lane id=":junc0_7_0" index="0" speed="13.90" length="16.63" shape="93.45,1690.29 96.23,1693.17 99.12,1696.37 101.92,1699.64 104.44,1702.76"/>
    </edge>
    <edge id=":junc0_8" function="internal">
        <lane id=":junc0_8_0" index="0" speed="9.54" length="4.38" shape="93.45,1690.29 95.90,1693.57 95.98,1693.85"/>
    </edge>
    <edge id=":junc0_14" function="internal">
        <lane id=":junc0_14_0" index="0" speed="9.54" length="11.93" shape="95.98,1693.85 96.95,1697.16 96.60,1701.06 94.85,1705.28"/>
    </edge>
    <edge id=":junc0_9" function="internal">
        <lane id=":junc0_9_0" index="0" speed="8.29" length="12.12" shape="92.06,1703.72 93.39,1700.54 93.69,1697.62 92.96,1694.96 91.20,1692.56"/>
    </edge>
    <edge id=":junc0_10" function="internal">
        <lane id=":junc0_10_0" index="0" speed="13.90" length="16.65" shape="92.06,1703.72 94.08,1700.26 96.36,1696.60 98.76,1693.01 101.12,1689.76"/>
    </edge>
    <edge id=":junc0_11" function="internal">
        <lane id=":junc0_11_0" index="0" speed="7.48" length="4.68" shape="92.06,1703.72 94.88,1699.99"/>
    </edge>
    <edge id=":junc0_15" function="internal">
        <lane id=":junc0_15_0" index="0" speed="7.48" length="11.32" shape="94.88,1699.99 97.89,1698.58 101.08,1699.51 104.44,1702.76"/>
    </edge>
    <edge id=":junc1_0" function="internal">
        <lane id=":junc1_0_0" index="0" speed="9.90" length="13.93" shape="203.73,1812.91 201.86,1811.20 199.06,1810.14 195.34,1809.74 190.69,1809.99"/>
    </edge>
    <edge id=":junc1_1" function="internal">
        <lane id=":junc1_1_0" index="0" speed="13.90" length="16.69" shape="203.73,1812.91 201.26,1809.76 198.30,1806.61 195.16,1803.61 192.16,1800.93"/>
    </edge>
    <edge id=":junc1_2" function="internal">
        <lane id=":junc1_2_0" index="0" speed="6.95" length="3.12" shape="203.73,1812.91 202.41,1810.09"/>
    </edge>
    <edge id=":junc1_8" function="internal">
        <lane id=":junc1_8_0" index="0" speed="6.95" length="9.88" shape="202.41,1810.09 202.29,1809.81 202.57,1807.22 204.58,1805.12 208.31,1803.52"/>
    </edge>
    <edge id=":junc1_3" function="internal">
        <lane id=":junc1_3_0" index="0" speed="10.93" length="15.52" shape="194.27,1798.52 198.08,1801.39 201.69,1803.18 205.10,1803.89 208.31,1803.52"/>
    </edge>
    <edge id=":junc1_4" function="internal">
        <lane id=":junc1_4_0" index="0" speed="13.90" length="17.48" shape="194.27,1798.52 197.35,1801.29 200.67,1804.50 203.81,1807.86 206.37,1811.10"/>
    </edge>
    <edge id=":junc1_5" function="internal">
        <lane id=":junc1_5_0" index="0" speed="5.50" length="9.61" shape="190.33,1806.81 193.29,1806.12 194.58,1804.91 194.20,1803.18 192.16,1800.93"/>
    </edge>
    <edge id=":junc1_6" function="internal">
        <lane id=":junc1_6_0" index="0" speed="13.90" length="18.30" shape="190.33,1806.81 194.56,1806.25 199.38,1805.48 204.18,1804.55 208.31,1803.52"/>
    </edge>
    <edge id=":junc1_7" function="internal">
        <lane id=":junc1_7_0" index="0" speed="11.01" length="17.37" shape="190.33,1806.81 195.88,1806.56 200.41,1807.19 203.90,1808.70 206.37,1811.10"/>
    </edge>
    <edge id=":junc10_0" function="internal">
        <lane id=":junc10_0_0" index="0" speed="6.35" length="9.04" shape="715.01,1645.90 713.13,1644.25 711.21,1643.65 709.24,1644.09 707.23,1645.58"/>
    </edge>
    <edge id=":junc10_1" function="internal">
        <lane id=":junc10_1_0" index="0" speed="13.90" length="11.50" shape="715.01,1645.90 712.93,1643.46 711.25,1641.54 709.49,1639.71 707.16,1637.51"/>
    </edge>
    <edge id=":junc10_2" function="internal">
        <lane id=":junc10_2_0" index="0" speed="7.46" length="10.26" shape="717.06,1634.47 715.73,1636.81 715.35,1639.15 715.92,1641.48 717.44,1643.82"/>
    </edge>
    <edge id=":junc10_3" function="internal">
        <lane id=":junc10_3_0" index="0" speed="13.90" length="14.85" shape="717.06,1634.47 714.74,1637.38 712.33,1640.19 709.83,1642.92 707.23,1645.58"/>
    </edge>
    <edge id=":junc10_4" function="internal">
        <lane id=":junc10_4_0" index="0" speed="7.17" length="11.88" shape="717.06,1634.47 714.39,1637.31 711.85,1638.77 709.44,1638.84 707.16,1637.51"/>
    </edge>
    <edge id=":junc10_5" function="internal">
        <lane id=":junc10_5_0" index="0" speed="13.90" length="11.90" shape="709.32,1635.15 711.69,1637.39 713.55,1639.32 715.32,1641.34 717.44,1643.82"/>
    </edge>
    <edge id=":junc11_0" function="internal">
        <lane id=":junc11_0_0" index="0" speed="6.23" length="9.05" shape="855.92,1802.40 854.02,1800.73 852.11,1800.15 850.19,1800.67 848.25,1802.30"/>
    </edge>
    <edge id=":junc11_1" function="internal">
        <lane id=":junc11_1_0" index="0" speed="13.90" length="14.92" shape="855.92,1802.40 845.99,1791.26"/>
    </edge>
    <edge id=":junc11_2" function="internal">
        <lane id=":junc11_2_0" index="0" speed="8.45" length="4.08" shape="855.92,1802.40 853.72,1798.96"/>
    </edge>
    <edge id=":junc11_10" function="internal">
        <lane id=":junc11_10_0" index="0" speed="8.45" length="10.74" shape="853.72,1798.96 853.03,1795.60 853.85,1792.33 856.17,1789.15"/>
    </edge>
    <edge id=":junc11_3" function="internal">
        <lane id=":junc11_3_0" index="0" speed="7.05" length="10.00" shape="858.46,1791.39 856.91,1793.52 856.38,1795.73 856.86,1798.00 858.36,1800.34"/>
    </edge>
    <edge id=":junc11_4" function="internal">
        <lane id=":junc11_4_0" index="0" speed="13.90" length="14.93" shape="858.46,1791.39 848.25,1802.30"/>
    </edge>
    <edge id=":junc11_5" function="internal">
        <lane id=":junc11_5_0" index="0" speed="6.42" length="9.04" shape="848.32,1789.07 850.27,1790.62 852.23,1791.16 854.19,1790.66 856.17,1789.15"/>
    </edge>
    <edge id=":junc11_6" function="internal">
        <lane id=":junc11_6_0" index="0" speed="13.90" length="15.09" shape="848.32,1789.07 858.36,1800.34"/>
    </edge>
    <edge id=":junc11_7" function="internal">
        <lane id=":junc11_7_0" index="0" speed="7.02" length="9.97" shape="845.87,1800.16 847.43,1797.87 847.97,1795.62 847.49,1793.42 845.99,1791.26"/>
    </edge>
    <edge id=":junc11_8" function="internal">
        <lane id=":junc11_8_0" index="0" speed="13.90" length="15.08" shape="845.87,1800.16 856.17,1789.15"/>
    </edge>
    <edge id=":junc11_9" function="internal">
        <lane id=":junc11_9_0" index="0" speed="7.77" length="4.37" shape="845.87,1800.16 849.03,1797.51 849.26,1797.45"/>
    </edge>
    <edge id=":junc11_11" function="internal">
        <lane id=":junc11_11_0" index="0" speed="7.77" length="10.38" shape="849.26,1797.45 852.16,1796.66 855.27,1797.60 858.36,1800.34"/>
    </edge>
    <edge id=":junc12_0" function="internal">
        <lane id=":junc12_0_0" index="0" speed="6.73" length="9.58" shape="581.00,1126.62 578.85,1125.23 576.73,1124.87 574.64,1125.54 572.58,1127.24"/>
    </edge>
    <edge id=":junc12_1" function="internal">
        <lane id=":junc12_1_0" index="0" speed="13.90" length="14.77" shape="581.00,1126.62 578.19,1124.20 575.34,1121.87 572.45,1119.61 569.47,1117.40"/>
    </edge>
    <edge id=":junc12_2" function="internal">
        <lane id=":junc12_2_0" index="0" speed="7.93" length="3.96" shape="581.00,1126.62 578.43,1123.61"/>
    </edge>
    <edge id=":junc12_11" function="internal">
        <lane id=":junc12_11_0" index="0" speed="7.93" length="10.40" shape="578.43,1123.61 577.49,1120.53 578.17,1117.38 580.48,1114.17"/>
    </edge>
    <edge id=":junc12_3" function="internal">
        <lane id=":junc12_3_0" index="0" speed="6.42" length="9.04" shape="582.79,1116.38 581.34,1118.41 580.91,1120.39 581.50,1122.33 583.12,1124.22"/>
    </edge>
    <edge id=":junc12_4" function="internal">
        <lane id=":junc12_4_0" index="0" speed="13.90" length="14.90" shape="582.79,1116.38 572.58,1127.24"/>
    </edge>
    <edge id=":junc12_5" function="internal">
        <lane id=":junc12_5_0" index="0" speed="7.21" length="10.15" shape="571.35,1114.81 573.80,1116.14 576.14,1116.47 578.36,1115.81 580.48,1114.17"/>
    </edge>
    <edge id=":junc12_6" function="internal">
        <lane id=":junc12_6_0" index="0" speed="13.90" length="15.07" shape="571.35,1114.81 574.37,1117.06 577.34,1119.38 580.26,1121.77 583.12,1124.22"/>
    </edge>
    <edge id=":junc12_7" function="internal">
        <lane id=":junc12_7_0" index="0" speed="7.81" length="4.27" shape="571.35,1114.81 574.28,1117.66 574.34,1117.83"/>
    </edge>
    <edge id=":junc12_12" function="internal">
        <lane id=":junc12_12_0" index="0" speed="7.81" length="10.38" shape="574.34,1117.83 575.46,1120.68 574.89,1123.87 572.58,1127.24"/>
    </edge>
    <edge id=":junc12_8" function="internal">
        <lane id=":junc12_8_0" index="0" speed="6.27" length="9.04" shape="570.23,1125.07 571.65,1122.99 572.00,1121.02 571.28,1119.15 569.47,1117.40"/>
    </edge>
    <edge id=":junc12_9" function="internal">
        <lane id=":junc12_9_0" index="0" speed="13.90" length="14.96" shape="570.23,1125.07 580.48,1114.17"/>
    </edge>
    <edge id=":junc12_10" function="internal">
        <lane id=":junc12_10_0" index="0" speed="8.19" length="4.32" shape="570.23,1125.07 573.36,1122.49 573.61,1122.41"/>
    </edge>
    <edge id=":junc12_13" function="internal">
        <lane id=":junc12_13_0" index="0" speed="8.19" length="10.34" shape="573.61,1122.41 576.55,1121.49 579.80,1122.07 583.12,1124.22"/>
    </edge>
    <edge id=":junc13_0" function="internal">
        <lane id=":junc13_0_0" index="0" speed="13.90" length="14.82" shape="798.04,1307.34 786.63,1297.88"/>
    </edge>
    <edge id=":junc13_1" function="internal">
        <lane id=":junc13_1_0" index="0" speed="10.40" length="3.34" shape="798.04,1307.34 795.95,1304.73"/>
    </edge>
    <edge id=":junc13_9" function="internal">
        <lane id=":junc13_9_0" index="0" speed="10.40" length="11.94" shape="795.95,1304.73 794.78,1301.48 794.54,1297.59 795.22,1293.06"/>
    </edge>
    <edge id=":junc13_2" function="internal">
        <lane id=":junc13_2_0" index="0" speed="9.21" length="11.85" shape="798.33,1293.79 797.75,1297.43 797.87,1300.51 798.68,1303.02 800.17,1304.95"/>
    </edge>
    <edge id=":junc13_3" function="internal">
        <lane id=":junc13_3_0" index="0" speed="7.45" length="16.24" shape="798.33,1293.79 796.61,1298.26 794.09,1300.43 790.76,1300.30 786.63,1297.88"/>
    </edge>
    <edge id=":junc13_4" function="internal">
        <lane id=":junc13_4_0" index="0" speed="5.77" length="9.16" shape="788.61,1295.36 790.94,1296.73 792.82,1296.80 794.25,1295.58 795.22,1293.06"/>
    </edge>
    <edge id=":junc13_5" function="internal">
        <lane id=":junc13_5_0" index="0" speed="13.90" length="15.02" shape="788.61,1295.36 800.17,1304.95"/>
    </edge>
    <edge id=":junc13_6" function="internal">
        <lane id=":junc13_6_0" index="0" speed="7.85" length="11.63" shape="789.93,1307.96 790.76,1305.34 790.48,1302.78 789.11,1300.30 786.63,1297.88"/>
    </edge>
    <edge id=":junc13_7" function="internal">
        <lane id=":junc13_7_0" index="0" speed="13.90" length="15.85" shape="789.93,1307.96 791.57,1304.44 793.01,1300.67 794.23,1296.81 795.22,1293.06"/>
    </edge>
    <edge id=":junc13_8" function="internal">
        <lane id=":junc13_8_0" index="0" speed="7.08" length="12.99" shape="789.93,1307.96 792.19,1304.65 794.65,1303.05 797.31,1303.15 800.17,1304.95"/>
    </edge>
    <edge id=":junc14_0" function="internal">
        <lane id=":junc14_0_0" index="0" speed="6.01" length="9.08" shape="884.44,1377.73 882.27,1376.32 880.34,1376.08 878.64,1377.03 877.18,1379.17"/>
    </edge>
    <edge id=":junc14_1" function="internal">
        <lane id=":junc14_1_0" index="0" speed="13.90" length="13.56" shape="884.44,1377.73 873.95,1369.13"/>
    </edge>
    <edge id=":junc14_2" function="internal">
        <lane id=":junc14_2_0" index="0" speed="13.90" length="16.06" shape="882.34,1364.01 881.45,1367.82 880.24,1371.75 878.79,1375.60 877.18,1379.17"/>
    </edge>
    <edge id=":junc14_3" function="internal">
        <lane id=":junc14_3_0" index="0" speed="13.90" length="13.84" shape="875.85,1366.56 886.56,1375.33"/>
    </edge>
    <edge id=":junc14_4" function="internal">
        <lane id=":junc14_4_0" index="0" speed="8.48" length="3.54" shape="875.85,1366.56 878.01,1368.87 878.13,1369.23"/>
    </edge>
    <edge id=":junc14_5" function="internal">
        <lane id=":junc14_5_0" index="0" speed="8.48" length="10.36" shape="878.13,1369.23 878.95,1371.75 878.67,1375.18 877.18,1379.17"/>
    </edge>
    <edge id=":junc15_0" function="internal">
        <lane id=":junc15_0_0" index="0" speed="5.50" length="9.58" shape="1048.30,1519.50 1047.01,1516.77 1045.55,1515.76 1043.93,1516.47 1042.13,1518.89"/>
    </edge>
    <edge id=":junc15_1" function="internal">
        <lane id=":junc15_1_0" index="0" speed="13.90" length="20.13" shape="1048.30,1519.50 1047.25,1515.06 1046.60,1509.56 1046.50,1504.04 1047.11,1499.57"/>
    </edge>
    <edge id=":junc15_2" function="internal">
        <lane id=":junc15_2_0" index="0" speed="13.90" length="18.26" shape="1050.19,1500.43 1049.57,1504.62 1049.65,1509.48 1050.29,1514.34 1051.33,1518.48"/>
    </edge>
    <edge id=":junc15_3" function="internal">
        <lane id=":junc15_3_0" index="0" speed="13.90" length="20.17" shape="1050.19,1500.43 1048.70,1504.74 1046.58,1509.84 1044.25,1514.85 1042.13,1518.89"/>
    </edge>
    <edge id=":junc15_4" function="internal">
        <lane id=":junc15_4_0" index="0" speed="5.83" length="9.13" shape="1040.34,1501.79 1042.65,1503.12 1044.55,1503.19 1046.03,1502.01 1047.11,1499.57"/>
    </edge>
    <edge id=":junc15_5" function="internal">
        <lane id=":junc15_5_0" index="0" speed="13.90" length="20.14" shape="1040.34,1501.79 1043.50,1505.02 1046.72,1509.51 1049.50,1514.30 1051.33,1518.48"/>
    </edge>
    <edge id=":junc15_6" function="internal">
        <lane id=":junc15_6_0" index="0" speed="8.50" length="14.38" shape="1039.35,1517.31 1041.11,1513.32 1041.53,1509.82 1040.62,1506.82 1038.38,1504.31"/>
    </edge>
    <edge id=":junc15_7" function="internal">
        <lane id=":junc15_7_0" index="0" speed="13.90" length="19.39" shape="1039.35,1517.31 1041.42,1513.38 1043.65,1508.61 1045.67,1503.76 1047.11,1499.57"/>
    </edge>
    <edge id=":junc15_8" function="internal">
        <lane id=":junc15_8_0" index="0" speed="7.39" length="4.61" shape="1039.35,1517.31 1042.09,1513.60"/>
    </edge>
    <edge id=":junc15_9" function="internal">
        <lane id=":junc15_9_0" index="0" speed="7.39" length="14.01" shape="1042.09,1513.60 1042.84,1512.59 1046.00,1511.22 1048.83,1513.18 1051.33,1518.48"/>
    </edge>
    <edge id=":junc16_0" function="internal">
        <lane id=":junc16_0_0" index="0" speed="5.47" length="9.78" shape="807.93,884.17 807.49,881.06 806.41,879.68 804.69,880.02 802.33,882.09"/>
    </edge>
    <edge id=":junc16_1" function="internal">
        <lane id=":junc16_1_0" index="0" speed="13.90" length="18.68" shape="807.93,884.17 807.67,879.84 807.12,874.85 806.28,869.90 805.16,865.74"/>
    </edge>
    <edge id=":junc16_2" function="internal">
        <lane id=":junc16_2_0" index="0" speed="12.92" length="17.77" shape="807.93,884.17 808.05,878.39 808.79,873.66 810.15,869.99 812.14,867.37"/>
    </edge>
    <edge id=":junc16_3" function="internal">
        <lane id=":junc16_3_0" index="0" speed="11.91" length="15.02" shape="814.29,869.74 812.78,871.83 811.75,874.92 811.20,879.00 811.13,884.07"/>
    </edge>
    <edge id=":junc16_4" function="internal">
        <lane id=":junc16_4_0" index="0" speed="13.90" length="17.20" shape="814.29,869.74 811.34,872.57 808.19,875.79 805.10,879.08 802.33,882.09"/>
    </edge>
    <edge id=":junc16_5" function="internal">
        <lane id=":junc16_5_0" index="0" speed="6.74" length="3.15" shape="814.29,869.74 811.63,871.42"/>
    </edge>
    <edge id=":junc16_8" function="internal">
        <lane id=":junc16_8_0" index="0" speed="6.74" length="9.57" shape="811.63,871.42 811.54,871.48 809.10,871.39 806.97,869.48 805.16,865.74"/>
    </edge>
    <edge id=":junc16_6" function="internal">
        <lane id=":junc16_6_0" index="0" speed="10.51" length="15.83" shape="799.97,879.93 803.06,876.02 804.95,872.35 805.65,868.93 805.16,865.74"/>
    </edge>
    <edge id=":junc16_7" function="internal">
        <lane id=":junc16_7_0" index="0" speed="13.90" length="17.49" shape="799.97,879.93 802.77,876.88 805.93,873.53 809.15,870.24 812.14,867.37"/>
    </edge>
    <edge id=":junc17_0" function="internal">
        <lane id=":junc17_0_0" index="0" speed="13.90" length="0.31" shape="774.63,742.20 774.61,742.11 774.59,742.05 774.57,741.99 774.53,741.91"/>
    </edge>
    <edge id=":junc18_0" function="internal">
        <lane id=":junc18_0_0" index="0" speed="11.43" length="14.81" shape="915.83,770.16 913.29,773.32 911.62,776.62 910.82,780.04 910.90,783.59"/>
    </edge>
    <edge id=":junc18_1" function="internal">
        <lane id=":junc18_1_0" index="0" speed="13.90" length="15.90" shape="915.83,770.16 904.84,781.65"/>
    </edge>
    <edge id=":junc18_2" function="internal">
        <lane id=":junc18_2_0" index="0" speed="7.42" length="4.84" shape="915.83,770.16 912.04,773.17"/>
    </edge>
    <edge id=":junc18_9" function="internal">
        <lane id=":junc18_9_0" index="0" speed="7.42" length="11.78" shape="912.04,773.17 911.94,773.25 908.65,773.81 905.93,771.85 903.81,767.36"/>
    </edge>
    <edge id=":junc18_3" function="internal">
        <lane id=":junc18_3_0" index="0" speed="5.70" length="9.21" shape="906.86,766.39 908.04,768.88 909.54,769.97 911.37,769.65 913.52,767.94"/>
    </edge>
    <edge id=":junc18_4" function="internal">
        <lane id=":junc18_4_0" index="0" speed="13.90" length="17.68" shape="906.86,766.39 908.03,770.39 909.18,774.92 910.18,779.48 910.90,783.59"/>
    </edge>
    <edge id=":junc18_5" function="internal">
        <lane id=":junc18_5_0" index="0" speed="10.71" length="16.16" shape="906.86,766.39 907.91,771.03 907.92,775.12 906.90,778.66 904.84,781.65"/>
    </edge>
    <edge id=":junc18_6" function="internal">
        <lane id=":junc18_6_0" index="0" speed="9.56" length="12.74" shape="902.52,779.45 904.04,777.17 904.77,774.40 904.69,771.13 903.81,767.36"/>
    </edge>
    <edge id=":junc18_7" function="internal">
        <lane id=":junc18_7_0" index="0" speed="13.90" length="15.92" shape="902.52,779.45 913.52,767.94"/>
    </edge>
    <edge id=":junc18_8" function="internal">
        <lane id=":junc18_8_0" index="0" speed="6.53" length="3.91" shape="902.52,779.45 905.58,777.03"/>
    </edge>
    <edge id=":junc18_10" function="internal">
        <lane id=":junc18_10_0" index="0" speed="6.53" length="9.86" shape="905.58,777.03 908.00,776.91 909.78,779.10 910.90,783.59"/>
    </edge>
    <edge id=":junc19_0" function="internal">
        <lane id=":junc19_0_0" index="0" speed="5.51" length="9.55" shape="1124.53,564.54 1123.96,561.60 1122.79,560.26 1121.03,560.52 1118.69,562.39"/>
    </edge>
    <edge id=":junc19_1" function="internal">
        <lane id=":junc19_1_0" index="0" speed="13.90" length="16.43" shape="1124.53,564.54 1124.25,560.57 1124.00,556.34 1123.86,552.10 1123.89,548.13"/>
    </edge>
    <edge id=":junc19_2" function="internal">
        <lane id=":junc19_2_0" index="0" speed="13.90" length="16.07" shape="1127.09,548.24 1127.06,552.16 1127.20,556.27 1127.44,560.39 1127.73,564.30"/>
    </edge>
    <edge id=":junc19_3" function="internal">
        <lane id=":junc19_3_0" index="0" speed="13.90" length="16.76" shape="1127.09,548.24 1126.19,552.06 1124.14,555.86 1121.46,559.38 1118.69,562.39"/>
    </edge>
    <edge id=":junc19_4" function="internal">
        <lane id=":junc19_4_0" index="0" speed="13.02" length="14.49" shape="1116.41,560.14 1119.04,557.46 1121.40,554.67 1123.14,551.61 1123.89,548.13"/>
    </edge>
    <edge id=":junc19_5" function="internal">
        <lane id=":junc19_5_0" index="0" speed="7.39" length="18.48" shape="1116.41,560.14 1120.95,556.52 1124.35,556.01 1126.61,558.60 1127.73,564.30"/>
    </edge>
    <edge id=":junc2_0" function="internal">
        <lane id=":junc2_0_0" index="0" speed="9.46" length="13.09" shape="291.31,1907.72 288.77,1905.27 285.98,1903.76 282.95,1903.17 279.67,1903.50"/>
    </edge>
    <edge id=":junc2_1" function="internal">
        <lane id=":junc2_1_0" index="0" speed="13.90" length="14.61" shape="291.31,1907.72 288.92,1904.91 286.48,1902.24 283.92,1899.69 281.18,1897.22"/>
    </edge>
    <edge id=":junc2_2" function="internal">
        <lane id=":junc2_2_0" index="0" speed="5.89" length="9.11" shape="295.66,1898.70 293.33,1899.94 292.24,1901.52 292.39,1903.43 293.77,1905.67"/>
    </edge>
    <edge id=":junc2_3" function="internal">
        <lane id=":junc2_3_0" index="0" speed="13.90" length="16.70" shape="295.66,1898.70 291.86,1900.01 287.73,1901.31 283.56,1902.51 279.67,1903.50"/>
    </edge>
    <edge id=":junc2_4" function="internal">
        <lane id=":junc2_4_0" index="0" speed="10.52" length="15.26" shape="295.66,1898.70 291.41,1899.82 287.58,1899.95 284.17,1899.08 281.18,1897.22"/>
    </edge>
    <edge id=":junc2_5" function="internal">
        <lane id=":junc2_5_0" index="0" speed="13.90" length="15.16" shape="283.25,1894.78 286.06,1897.31 288.74,1900.00 291.32,1902.80 293.77,1905.67"/>
    </edge>
    <edge id=":junc2_6" function="internal">
        <lane id=":junc2_6_0" index="0" speed="6.54" length="3.93" shape="283.25,1894.78 285.76,1897.64 285.77,1897.78"/>
    </edge>
    <edge id=":junc2_7" function="internal">
        <lane id=":junc2_7_0" index="0" speed="6.54" length="9.65" shape="285.77,1897.78 285.99,1900.05 283.96,1902.00 279.67,1903.50"/>
    </edge>
    <edge id=":junc20_0" function="internal">
        <lane id=":junc20_0_0" index="0" speed="13.90" length="14.46" shape="1022.08,1313.72 1020.81,1310.33 1018.95,1307.31 1016.69,1304.51 1014.19,1301.79"/>
    </edge>
    <edge id=":junc20_1" function="internal">
        <lane id=":junc20_1_0" index="0" speed="13.09" length="3.42" shape="1022.08,1313.72 1021.82,1310.52 1021.86,1310.32"/>
    </edge>
    <edge id=":junc20_6" function="internal">
        <lane id=":junc20_6_0" index="0" speed="13.09" length="13.55" shape="1021.86,1310.32 1022.55,1306.81 1024.27,1302.60 1026.97,1297.89"/>
    </edge>
    <edge id=":junc20_2" function="internal">
        <lane id=":junc20_2_0" index="0" speed="12.06" length="14.36" shape="1029.66,1299.62 1027.27,1303.74 1025.72,1307.33 1025.03,1310.39 1025.18,1312.93"/>
    </edge>
    <edge id=":junc20_3" function="internal">
        <lane id=":junc20_3_0" index="0" speed="5.50" length="9.57" shape="1020.84,1296.97 1021.99,1299.75 1023.39,1300.83 1025.05,1300.21 1026.97,1297.89"/>
    </edge>
    <edge id=":junc20_4" function="internal">
        <lane id=":junc20_4_0" index="0" speed="13.90" length="16.55" shape="1020.84,1296.97 1025.18,1312.93"/>
    </edge>
    <edge id=":junc20_5" function="internal">
        <lane id=":junc20_5_0" index="0" speed="13.90" length="16.04" shape="1016.52,1299.60 1019.14,1302.54 1021.67,1305.82 1023.79,1309.32 1025.18,1312.93"/>
    </edge>
    <edge id=":junc3_0" function="internal">
        <lane id=":junc3_0_0" index="0" speed="6.38" length="4.64" shape="450.65,2057.29 449.48,2057.55 448.36,2057.52 447.28,2057.20 446.25,2056.60"/>
    </edge>
    <edge id=":junc3_1" function="internal">
        <lane id=":junc3_1_0" index="0" speed="4.06" length="1.55" shape="448.15,2054.03 448.50,2054.23 448.86,2054.33 449.23,2054.34 449.62,2054.26"/>
    </edge>
    <edge id=":junc4_0" function="internal">
        <lane id=":junc4_0_0" index="0" speed="7.19" length="10.46" shape="704.11,1933.53 701.99,1931.69 699.73,1930.90 697.34,1931.17 694.82,1932.50"/>
    </edge>
    <edge id=":junc4_1" function="internal">
        <lane id=":junc4_1_0" index="0" speed="13.90" length="15.41" shape="704.11,1933.53 693.53,1922.33"/>
    </edge>
    <edge id=":junc4_2" function="internal">
        <lane id=":junc4_2_0" index="0" speed="7.75" length="3.86" shape="704.11,1933.53 702.03,1930.29"/>
    </edge>
    <edge id=":junc4_11" function="internal">
        <lane id=":junc4_11_0" index="0" speed="7.75" length="10.95" shape="702.03,1930.29 701.87,1930.04 701.43,1926.82 702.79,1923.86 705.95,1921.17"/>
    </edge>
    <edge id=":junc4_3" function="internal">
        <lane id=":junc4_3_0" index="0" speed="6.20" length="9.05" shape="707.65,1923.88 705.72,1925.53 704.89,1927.33 705.16,1929.30 706.53,1931.43"/>
    </edge>
    <edge id=":junc4_4" function="internal">
        <lane id=":junc4_4_0" index="0" speed="13.90" length="15.46" shape="707.65,1923.88 694.82,1932.50"/>
    </edge>
    <edge id=":junc4_5" function="internal">
        <lane id=":junc4_5_0" index="0" speed="9.17" length="4.11" shape="707.65,1923.88 703.91,1925.58"/>
    </edge>
    <edge id=":junc4_12" function="internal">
        <lane id=":junc4_12_0" index="0" speed="9.17" length="11.39" shape="703.91,1925.58 700.31,1925.88 696.85,1924.80 693.53,1922.33"/>
    </edge>
    <edge id=":junc4_6" function="internal">
        <lane id=":junc4_6_0" index="0" speed="7.87" length="11.18" shape="695.76,1920.03 698.16,1921.82 700.66,1922.61 703.26,1922.39 705.95,1921.17"/>
    </edge>
    <edge id=":junc4_7" function="internal">
        <lane id=":junc4_7_0" index="0" speed="13.90" length="15.68" shape="695.76,1920.03 706.53,1931.43"/>
    </edge>
    <edge id=":junc4_8" function="internal">
        <lane id=":junc4_8_0" index="0" speed="6.16" length="9.05" shape="692.95,1929.89 694.79,1928.13 695.50,1926.28 695.08,1924.35 693.53,1922.33"/>
    </edge>
    <edge id=":junc4_9" function="internal">
        <lane id=":junc4_9_0" index="0" speed="13.90" length="15.65" shape="692.95,1929.89 705.95,1921.17"/>
    </edge>
    <edge id=":junc4_10" function="internal">
        <lane id=":junc4_10_0" index="0" speed="8.58" length="4.58" shape="692.95,1929.89 696.63,1927.96 697.06,1927.92"/>
    </edge>
    <edge id=":junc4_13" function="internal">
        <lane id=":junc4_13_0" index="0" speed="8.58" length="10.70" shape="697.06,1927.92 700.12,1927.58 703.42,1928.73 706.53,1931.43"/>
    </edge>
    <edge id=":junc5_0" function="internal">
        <lane id=":junc5_0_0" index="0" speed="7.47" length="10.28" shape="561.89,1782.48 559.83,1780.67 557.60,1779.79 555.21,1779.86 552.64,1780.86"/>
    </edge>
    <edge id=":junc5_1" function="internal">
        <lane id=":junc5_1_0" index="0" speed="13.90" length="12.18" shape="561.89,1782.48 559.72,1779.98 557.86,1777.91 555.93,1775.91 553.55,1773.61"/>
    </edge>
    <edge id=":junc5_2" function="internal">
        <lane id=":junc5_2_0" index="0" speed="6.42" length="9.04" shape="565.02,1772.56 563.32,1774.38 562.63,1776.29 562.96,1778.29 564.31,1780.38"/>
    </edge>
    <edge id=":junc5_3" function="internal">
        <lane id=":junc5_3_0" index="0" speed="13.90" length="14.92" shape="565.02,1772.56 562.05,1774.83 559.01,1776.97 555.87,1778.98 552.64,1780.86"/>
    </edge>
    <edge id=":junc5_4" function="internal">
        <lane id=":junc5_4_0" index="0" speed="8.01" length="12.70" shape="565.02,1772.56 561.75,1774.67 558.75,1775.55 556.02,1775.19 553.55,1773.61"/>
    </edge>
    <edge id=":junc5_5" function="internal">