<?xml version='1.0' encoding='UTF-8'?>
<routes>
  <vType id="car" accel="1.0" decel="4.5" length="5" maxSpeed="16.6" sigma="0.5"/>
  <route id="route_140" edges="809719540#0 -809772643#1"/>
  <flow id="route_140" type="car" route="route_140" begin="60" end="120" number="3" departPos="random" arrivalPos="random"/>
  <route id="route_141" edges="809719540#0 809937918#0 683079388#0 683079387#1"/>
  <flow id="route_141" type="car" route="route_141" begin="60" end="120" number="1" departPos="random" arrivalPos="random"/>
  <route id="route_142" edges="1253222187#0 809937918#0 683079388#0"/>
  <flow id="route_142" type="car" route="route_142" begin="60" end="120" number="2" departPos="random" arrivalPos="random"/>
  <route id="route_143" edges="1253222187#0 1310781056-AddedOnRampEdge 1310781056"/>
  <flow id="route_143" type="car" route="route_143" begin="60" end="120" number="1" departPos="random" arrivalPos="random"/>
  <route id="route_146" edges="683079387#1 683079387#1.14 -809772643#1"/>
  <flow id="route_146" type="car" route="route_146" begin="60" end="120" number="4" departPos="random" arrivalPos="random"/>
  <route id="route_147" edges="683079387#1 683079387#1.14 1310781056-AddedOnRampEdge 1310781056"/>
  <flow id="route_147" type="car" route="route_147" begin="60" end="120" number="1" departPos="random" arrivalPos="random"/>
</routes>
