<?xml version='1.0' encoding='utf-8'?>
<routes><vTypeDistribution id="mixed_flow1"><vType id="car_flow1" accel="1.0" decel="4.5" sigma="0.5" length="5" maxSpeed="4.78" guiShape="passenger" probability="0.9" /><vType id="bus_flow1" accel="0.8" decel="4.0" sigma="0.5" length="12" maxSpeed="4.13" guiShape="bus" probability="0.09999999999999998" /></vTypeDistribution><flow id="flow1" type="mixed_flow1" begin="0" end="67.0" number="26" from="1318793176#1" to="133126031#0" departPos="random" arrivalPos="random" /><vTypeDistribution id="mixed_flow2"><vType id="car_flow2" accel="1.0" decel="4.5" sigma="0.5" length="5" maxSpeed="4.42" guiShape="passenger" probability="0.9" /><vType id="bus_flow2" accel="0.8" decel="4.0" sigma="0.5" length="12" maxSpeed="3.82" guiShape="bus" probability="0.09999999999999998" /></vTypeDistribution><flow id="flow2" type="mixed_flow2" begin="0" end="48.0" number="19" from="1318793176#1" to="1318793173#0" departPos="random" arrivalPos="random" /><vTypeDistribution id="mixed_flow3"><vType id="car_flow3" accel="1.0" decel="4.5" sigma="0.5" length="5" maxSpeed="4.31" guiShape="passenger" probability="0.9" /><vType id="bus_flow3" accel="0.8" decel="4.0" sigma="0.5" length="12" maxSpeed="3.72" guiShape="bus" probability="0.09999999999999998" /></vTypeDistribution><flow id="flow3" type="mixed_flow3" begin="0" end="38.0" number="15" from="1318793173#0" to="189835257" departPos="random" arrivalPos="random" /><vTypeDistribution id="mixed_flow4"><vType id="car_flow4" accel="1.0" decel="4.5" sigma="0.5" length="5" maxSpeed="4.3" guiShape="passenger" probability="0.9" /><vType id="bus_flow4" accel="0.8" decel="4.0" sigma="0.5" length="12" maxSpeed="3.72" guiShape="bus" probability="0.09999999999999998" /></vTypeDistribution><flow id="flow4" type="mixed_flow4" begin="0" end="34.0" number="13" from="1318793173#0" to="291974733#0" departPos="random" arrivalPos="random" /><vTypeDistribution id="mixed_flow5"><vType id="car_flow5" accel="1.0" decel="4.5" sigma="0.5" length="5" maxSpeed="4.59" guiShape="passenger" probability="0.9" /><vType id="bus_flow5" accel="0.8" decel="4.0" sigma="0.5" length="12" maxSpeed="3.96" guiShape="bus" probability="0.09999999999999998" /></vTypeDistribution><flow id="flow5" type="mixed_flow5" begin="0" end="52.0" number="20" from="291974733#0" to="379698350#0" departPos="random" arrivalPos="random" /><vTypeDistribution id="mixed_flow6"><vType id="car_flow6" accel="1.0" decel="4.5" sigma="0.5" length="5" maxSpeed="4.04" guiShape="passenger" probability="0.9" /><vType id="bus_flow6" accel="0.8" decel="4.0" sigma="0.5" length="12" maxSpeed="3.49" guiShape="bus" probability="0.09999999999999998" /></vTypeDistribution><flow id="flow6" type="mixed_flow6" begin="0" end="37.0" number="14" from="291974733#0" to="1342054204" departPos="random" arrivalPos="random" /><vTypeDistribution id="mixed_flow7"><vType id="car_flow7" accel="1.0" decel="4.5" sigma="0.5" length="5" maxSpeed="5.35" guiShape="passenger" probability="0.9" /><vType id="bus_flow7" accel="0.8" decel="4.0" sigma="0.5" length="12" maxSpeed="4.62" guiShape="bus" probability="0.09999999999999998" /></vTypeDistribution><flow id="flow7" type="mixed_flow7" begin="0" end="43.0" number="17" from="1252820505#0" to="379698350#0" departPos="random" arrivalPos="random" /><vTypeDistribution id="mixed_flow8"><vType id="car_flow8" accel="1.0" decel="4.5" sigma="0.5" length="5" maxSpeed="4.08" guiShape="passenger" probability="0.9" /><vType id="bus_flow8" accel="0.8" decel="4.0" sigma="0.5" length="12" maxSpeed="3.52" guiShape="bus" probability="0.09999999999999998" /></vTypeDistribution><flow id="flow8" type="mixed_flow8" begin="0" end="61.0" number="24" from="133000078#0" to="137406408#0" departPos="random" arrivalPos="random" /><vTypeDistribution id="mixed_flow9"><vType id="car_flow9" accel="1.0" decel="4.5" sigma="0.5" length="5" maxSpeed="5.36" guiShape="passenger" probability="0.9" /><vType id="bus_flow9" accel="0.8" decel="4.0" sigma="0.5" length="12" maxSpeed="4.63" guiShape="bus" probability="0.09999999999999998" /></vTypeDistribution><flow id="flow9" type="mixed_flow9" begin="0" end="46.0" number="18" from="133000078#0" to="1235147073.116" departPos="random" arrivalPos="random" /><vTypeDistribution id="mixed_flow10"><vType id="car_flow10" accel="1.0" decel="4.5" sigma="0.5" length="5" maxSpeed="5.08" guiShape="passenger" probability="0.9" /><vType id="bus_flow10" accel="0.8" decel="4.0" sigma="0.5" length="12" maxSpeed="4.39" guiShape="bus" probability="0.09999999999999998" /></vTypeDistribution><flow id="flow10" type="mixed_flow10" begin="0" end="45.0" number="18" from="1318793173#0" to="1254771874#0" departPos="random" arrivalPos="random" /><vTypeDistribution id="mixed_flow11"><vType id="car_flow11" accel="1.0" decel="4.5" sigma="0.5" length="5" maxSpeed="3.11" guiShape="passenger" probability="0.9" /><vType id="bus_flow11" accel="0.8" decel="4.0" sigma="0.5" length="12" maxSpeed="2.69" guiShape="bus" probability="0.09999999999999998" /></vTypeDistribution><flow id="flow11" type="mixed_flow11" begin="0" end="81.0" number="32" from="291974733#0" to="1235147073.116" departPos="random" arrivalPos="random" /><vTypeDistribution id="mixed_flow12"><vType id="car_flow12" accel="1.0" decel="4.5" sigma="0.5" length="5" maxSpeed="4.6" guiShape="passenger" probability="0.9" /><vType id="bus_flow12" accel="0.8" decel="4.0" sigma="0.5" length="12" maxSpeed="3.97" guiShape="bus" probability="0.09999999999999998" /></vTypeDistribution><flow id="flow12" type="mixed_flow12" begin="0" end="55.0" number="22" from="1252820505#0" to="1235147073.116" departPos="random" arrivalPos="random" /><vTypeDistribution id="mixed_flow13"><vType id="car_flow13" accel="1.0" decel="4.5" sigma="0.5" length="5" maxSpeed="3.66" guiShape="passenger" probability="0.9" /><vType id="bus_flow13" accel="0.8" decel="4.0" sigma="0.5" length="12" maxSpeed="3.16" guiShape="bus" probability="0.09999999999999998" /></vTypeDistribution><flow id="flow13" type="mixed_flow13" begin="0" end="64.0" number="25" from="1252820505#0" to="137406408#0" departPos="random" arrivalPos="random" /><vTypeDistribution id="mixed_flow14"><vType id="car_flow14" accel="1.0" decel="4.5" sigma="0.5" length="5" maxSpeed="4.35" guiShape="passenger" probability="0.9" /><vType id="bus_flow14" accel="0.8" decel="4.0" sigma="0.5" length="12" maxSpeed="3.75" guiShape="bus" probability="0.09999999999999998" /></vTypeDistribution><flow id="flow14" type="mixed_flow14" begin="0" end="63.0" number="25" from="133000078#0" to="1342054204" departPos="random" arrivalPos="random" /><vTypeDistribution id="mixed_flow15"><vType id="car_flow15" accel="1.0" decel="4.5" sigma="0.5" length="5" maxSpeed="3.89" guiShape="passenger" probability="0.9" /><vType id="bus_flow15" accel="0.8" decel="4.0" sigma="0.5" length="12" maxSpeed="3.36" guiShape="bus" probability="0.09999999999999998" /></vTypeDistribution><flow id="flow15" type="mixed_flow15" begin="0" end="45.0" number="18" from="1252820503#0" to="291974733#0" departPos="random" arrivalPos="random" /><vTypeDistribution id="mixed_flow16"><vType id="car_flow16" accel="1.0" decel="4.5" sigma="0.5" length="5" maxSpeed="5.39" guiShape="passenger" probability="0.9" /><vType id="bus_flow16" accel="0.8" decel="4.0" sigma="0.5" length="12" maxSpeed="4.65" guiShape="bus" probability="0.09999999999999998" /></vTypeDistribution><flow id="flow16" type="mixed_flow16" begin="0" end="48.0" number="19" from="1252820503#0" to="1254771874#0" departPos="random" arrivalPos="random" /><vTypeDistribution id="mixed_flow17"><vType id="car_flow17" accel="1.0" decel="4.5" sigma="0.5" length="5" maxSpeed="4.81" guiShape="passenger" probability="0.9" /><vType id="bus_flow17" accel="0.8" decel="4.0" sigma="0.5" length="12" maxSpeed="4.15" guiShape="bus" probability="0.09999999999999998" /></vTypeDistribution><flow id="flow17" type="mixed_flow17" begin="0" end="38.0" number="15" from="1252820503#0" to="133126040#0" departPos="random" arrivalPos="random" /><vTypeDistribution id="mixed_flow18"><vType id="car_flow18" accel="1.0" decel="4.5" sigma="0.5" length="5" maxSpeed="3.97" guiShape="passenger" probability="0.9" /><vType id="bus_flow18" accel="0.8" decel="4.0" sigma="0.5" length="12" maxSpeed="3.43" guiShape="bus" probability="0.09999999999999998" /></vTypeDistribution><flow id="flow18" type="mixed_flow18" begin="0" end="36.0" number="14" from="137406408#0" to="133126040#0" departPos="random" arrivalPos="random" /><vTypeDistribution id="mixed_flow19"><vType id="car_flow19" accel="1.0" decel="4.5" sigma="0.5" length="5" maxSpeed="4.44" guiShape="passenger" probability="0.9" /><vType id="bus_flow19" accel="0.8" decel="4.0" sigma="0.5" length="12" maxSpeed="3.84" guiShape="bus" probability="0.09999999999999998" /></vTypeDistribution><flow id="flow19" type="mixed_flow19" begin="0" end="49.0" number="19" from="137406408#0" to="1254771874#0" departPos="random" arrivalPos="random" /><vTypeDistribution id="mixed_flow20"><vType id="car_flow20" accel="1.0" decel="4.5" sigma="0.5" length="5" maxSpeed="6.83" guiShape="passenger" probability="0.9" /><vType id="bus_flow20" accel="0.8" decel="4.0" sigma="0.5" length="12" maxSpeed="5.9" guiShape="bus" probability="0.09999999999999998" /></vTypeDistribution><flow id="flow20" type="mixed_flow20" begin="0" end="29.0" number="11" from="133126040#0" to="1318893695#0" departPos="random" arrivalPos="random" /><vTypeDistribution id="mixed_flow21"><vType id="car_flow21" accel="1.0" decel="4.5" sigma="0.5" length="5" maxSpeed="4.27" guiShape="passenger" probability="0.9" /><vType id="bus_flow21" accel="0.8" decel="4.0" sigma="0.5" length="12" maxSpeed="3.69" guiShape="bus" probability="0.09999999999999998" /></vTypeDistribution><flow id="flow21" type="mixed_flow21" begin="0" end="61.0" number="24" from="133126040#0" to="133126031#0" departPos="random" arrivalPos="random" /><vTypeDistribution id="mixed_flow22"><vType id="car_flow22" accel="1.0" decel="4.5" sigma="0.5" length="5" maxSpeed="8.39" guiShape="passenger" probability="0.9" /><vType id="bus_flow22" accel="0.8" decel="4.0" sigma="0.5" length="12" maxSpeed="7.24" guiShape="bus" probability="0.09999999999999998" /></vTypeDistribution><flow id="flow22" type="mixed_flow22" begin="0" end="32.0" number="12" from="1318893695#0" to="133131666#1" departPos="random" arrivalPos="random" /><vTypeDistribution id="mixed_flow23"><vType id="car_flow23" accel="1.0" decel="4.5" sigma="0.5" length="5" maxSpeed="8.56" guiShape="passenger" probability="0.9" /><vType id="bus_flow23" accel="0.8" decel="4.0" sigma="0.5" length="12" maxSpeed="7.39" guiShape="bus" probability="0.09999999999999998" /></vTypeDistribution><flow id="flow23" type="mixed_flow23" begin="0" end="32.0" number="12" from="380585337#0" to="1318793176#1" departPos="random" arrivalPos="random" /><vTypeDistribution id="mixed_flow24"><vType id="car_flow24" accel="1.0" decel="4.5" sigma="0.5" length="5" maxSpeed="3.23" guiShape="passenger" probability="0.9" /><vType id="bus_flow24" accel="0.8" decel="4.0" sigma="0.5" length="12" maxSpeed="2.79" guiShape="bus" probability="0.09999999999999998" /></vTypeDistribution><flow id="flow24" type="mixed_flow24" begin="0" end="79.0" number="31" from="137415945#0" to="1342054204" departPos="random" arrivalPos="random" /><vTypeDistribution id="mixed_flow25"><vType id="car_flow25" accel="1.0" decel="4.5" sigma="0.5" length="5" maxSpeed="4.05" guiShape="passenger" probability="0.9" /><vType id="bus_flow25" accel="0.8" decel="4.0" sigma="0.5" length="12" maxSpeed="3.5" guiShape="bus" probability="0.09999999999999998" /></vTypeDistribution><flow id="flow25" type="mixed_flow25" begin="0" end="81.0" number="32" from="137415945#0" to="379698350#0" departPos="random" arrivalPos="random" /><vTypeDistribution id="mixed_flow26"><vType id="car_flow26" accel="1.0" decel="4.5" sigma="0.5" length="5" maxSpeed="2.89" guiShape="passenger" probability="0.9" /><vType id="bus_flow26" accel="0.8" decel="4.0" sigma="0.5" length="12" maxSpeed="2.5" guiShape="bus" probability="0.09999999999999998" /></vTypeDistribution><flow id="flow26" type="mixed_flow26" begin="0" end="75.0" number="30" from="137415945#0" to="137406408#0" departPos="random" arrivalPos="random" /><vTypeDistribution id="mixed_flow27"><vType id="car_flow27" accel="1.0" decel="4.5" sigma="0.5" length="5" maxSpeed="5.75" guiShape="passenger" probability="0.9" /><vType id="bus_flow27" accel="0.8" decel="4.0" sigma="0.5" length="12" maxSpeed="4.97" guiShape="bus" probability="0.09999999999999998" /></vTypeDistribution><flow id="flow27" type="mixed_flow27" begin="0" end="52.0" number="20" from="1254771874#0" to="1341093415#0" departPos="random" arrivalPos="random" /><vTypeDistribution id="mixed_flow28"><vType id="car_flow28" accel="1.0" decel="4.5" sigma="0.5" length="5" maxSpeed="5.19" guiShape="passenger" probability="0.9" /><vType id="bus_flow28" accel="0.8" decel="4.0" sigma="0.5" length="12" maxSpeed="4.48" guiShape="bus" probability="0.09999999999999998" /></vTypeDistribution><flow id="flow28" type="mixed_flow28" begin="0" end="68.0" number="27" from="1254771874#0" to="-422986370#2" departPos="random" arrivalPos="random" /><vTypeDistribution id="mixed_flow29"><vType id="car_flow29" accel="1.0" decel="4.5" sigma="0.5" length="5" maxSpeed="5.22" guiShape="passenger" probability="0.9" /><vType id="bus_flow29" accel="0.8" decel="4.0" sigma="0.5" length="12" maxSpeed="4.51" guiShape="bus" probability="0.09999999999999998" /></vTypeDistribution><flow id="flow29" type="mixed_flow29" begin="0" end="47.0" number="18" from="1254771874#0" to="138002006#0" departPos="random" arrivalPos="random" /><vTypeDistribution id="mixed_flow30"><vType id="car_flow30" accel="1.0" decel="4.5" sigma="0.5" length="5" maxSpeed="3.62" guiShape="passenger" probability="0.9" /><vType id="bus_flow30" accel="0.8" decel="4.0" sigma="0.5" length="12" maxSpeed="3.12" guiShape="bus" probability="0.09999999999999998" /></vTypeDistribution><flow id="flow30" type="mixed_flow30" begin="0" end="83.0" number="33" from="-422986370#2" to="-430406005#1" departPos="random" arrivalPos="random" /><vTypeDistribution id="mixed_flow31"><vType id="car_flow31" accel="1.0" decel="4.5" sigma="0.5" length="5" maxSpeed="3.93" guiShape="passenger" probability="0.9" /><vType id="bus_flow31" accel="0.8" decel="4.0" sigma="0.5" length="12" maxSpeed="3.39" guiShape="bus" probability="0.09999999999999998" /></vTypeDistribution><flow id="flow31" type="mixed_flow31" begin="0" end="96.0" number="38" from="-422986370#2" to="137415945#0" departPos="random" arrivalPos="random" /><vTypeDistribution id="mixed_flow32"><vType id="car_flow32" accel="1.0" decel="4.5" sigma="0.5" length="5" maxSpeed="3.52" guiShape="passenger" probability="0.9" /><vType id="bus_flow32" accel="0.8" decel="4.0" sigma="0.5" length="12" maxSpeed="3.04" guiShape="bus" probability="0.09999999999999998" /></vTypeDistribution><flow id="flow32" type="mixed_flow32" begin="0" end="84.0" number="33" from="1235147073.116" to="133126030#0" departPos="random" arrivalPos="random" /><vTypeDistribution id="mixed_flow33"><vType id="car_flow33" accel="1.0" decel="4.5" sigma="0.5" length="5" maxSpeed="3.39" guiShape="passenger" probability="0.9" /><vType id="bus_flow33" accel="0.8" decel="4.0" sigma="0.5" length="12" maxSpeed="2.93" guiShape="bus" probability="0.09999999999999998" /></vTypeDistribution><flow id="flow33" type="mixed_flow33" begin="0" end="84.0" number="33" from="1235147073.116" to="-430406005#1" departPos="random" arrivalPos="random" /><vTypeDistribution id="mixed_flow34"><vType id="car_flow34" accel="1.0" decel="4.5" sigma="0.5" length="5" maxSpeed="3.91" guiShape="passenger" probability="0.9" /><vType id="bus_flow34" accel="0.8" decel="4.0" sigma="0.5" length="12" maxSpeed="3.38" guiShape="bus" probability="0.09999999999999998" /></vTypeDistribution><flow id="flow34" type="mixed_flow34" begin="0" end="97.0" number="38" from="1235147073.116" to="1369578054" departPos="random" arrivalPos="random" /><vTypeDistribution id="mixed_flow35"><vType id="car_flow35" accel="1.0" decel="4.5" sigma="0.5" length="5" maxSpeed="3.74" guiShape="passenger" probability="0.9" /><vType id="bus_flow35" accel="0.8" decel="4.0" sigma="0.5" length="12" maxSpeed="3.23" guiShape="bus" probability="0.09999999999999998" /></vTypeDistribution><flow id="flow35" type="mixed_flow35" begin="0" end="80.0" number="32" from="133126008#0" to="1369578054" departPos="random" arrivalPos="random" /><vTypeDistribution id="mixed_flow36"><vType id="car_flow36" accel="1.0" decel="4.5" sigma="0.5" length="5" maxSpeed="2.95" guiShape="passenger" probability="0.9" /><vType id="bus_flow36" accel="0.8" decel="4.0" sigma="0.5" length="12" maxSpeed="2.55" guiShape="bus" probability="0.09999999999999998" /></vTypeDistribution><flow id="flow36" type="mixed_flow36" begin="0" end="73.0" number="29" from="133126008#0" to="133126030#0" departPos="random" arrivalPos="random" /><vTypeDistribution id="mixed_flow37"><vType id="car_flow37" accel="1.0" decel="4.5" sigma="0.5" length="5" maxSpeed="4.01" guiShape="passenger" probability="0.9" /><vType id="bus_flow37" accel="0.8" decel="4.0" sigma="0.5" length="12" maxSpeed="3.46" guiShape="bus" probability="0.09999999999999998" /></vTypeDistribution><flow id="flow37" type="mixed_flow37" begin="0" end="78.0" number="31" from="485211947#0" to="1369578054" departPos="random" arrivalPos="random" /><vTypeDistribution id="mixed_flow38"><vType id="car_flow38" accel="1.0" decel="4.5" sigma="0.5" length="5" maxSpeed="4.81" guiShape="passenger" probability="0.9" /><vType id="bus_flow38" accel="0.8" decel="4.0" sigma="0.5" length="12" maxSpeed="4.16" guiShape="bus" probability="0.09999999999999998" /></vTypeDistribution><flow id="flow38" type="mixed_flow38" begin="0" end="61.0" number="24" from="485211947#0" to="137415945#0" departPos="random" arrivalPos="random" /><vTypeDistribution id="mixed_flow39"><vType id="car_flow39" accel="1.0" decel="4.5" sigma="0.5" length="5" maxSpeed="3.76" guiShape="passenger" probability="0.9" /><vType id="bus_flow39" accel="0.8" decel="4.0" sigma="0.5" length="12" maxSpeed="3.24" guiShape="bus" probability="0.09999999999999998" /></vTypeDistribution><flow id="flow39" type="mixed_flow39" begin="0" end="58.0" number="23" from="485211947#0" to="-430406005#1" departPos="random" arrivalPos="random" /><vTypeDistribution id="mixed_flow40"><vType id="car_flow40" accel="1.0" decel="4.5" sigma="0.5" length="5" maxSpeed="4.07" guiShape="passenger" probability="0.9" /><vType id="bus_flow40" accel="0.8" decel="4.0" sigma="0.5" length="12" maxSpeed="3.52" guiShape="bus" probability="0.09999999999999998" /></vTypeDistribution><flow id="flow40" type="mixed_flow40" begin="0" end="54.0" number="21" from="133126030#0" to="134193294#0" departPos="random" arrivalPos="random" /><vTypeDistribution id="mixed_flow41"><vType id="car_flow41" accel="1.0" decel="4.5" sigma="0.5" length="5" maxSpeed="4.87" guiShape="passenger" probability="0.9" /><vType id="bus_flow41" accel="0.8" decel="4.0" sigma="0.5" length="12" maxSpeed="4.21" guiShape="bus" probability="0.09999999999999998" /></vTypeDistribution><flow id="flow41" type="mixed_flow41" begin="0" end="51.0" number="20" from="133126030#0" to="1328664748#0" departPos="random" arrivalPos="random" /><vTypeDistribution id="mixed_flow42"><vType id="car_flow42" accel="1.0" decel="4.5" sigma="0.5" length="5" maxSpeed="4.52" guiShape="passenger" probability="0.9" /><vType id="bus_flow42" accel="0.8" decel="4.0" sigma="0.5" length="12" maxSpeed="3.91" guiShape="bus" probability="0.09999999999999998" /></vTypeDistribution><flow id="flow42" type="mixed_flow42" begin="0" end="62.0" number="24" from="1369578054" to="1341093415#0" departPos="random" arrivalPos="random" /><vTypeDistribution id="mixed_flow43"><vType id="car_flow43" accel="1.0" decel="4.5" sigma="0.5" length="5" maxSpeed="4.36" guiShape="passenger" probability="0.9" /><vType id="bus_flow43" accel="0.8" decel="4.0" sigma="0.5" length="12" maxSpeed="3.76" guiShape="bus" probability="0.09999999999999998" /></vTypeDistribution><flow id="flow43" type="mixed_flow43" begin="0" end="52.0" number="20" from="1369578054" to="138002006#0" departPos="random" arrivalPos="random" /><vTypeDistribution id="mixed_flow44"><vType id="car_flow44" accel="1.0" decel="4.5" sigma="0.5" length="5" maxSpeed="3.44" guiShape="passenger" probability="0.9" /><vType id="bus_flow44" accel="0.8" decel="4.0" sigma="0.5" length="12" maxSpeed="2.97" guiShape="bus" probability="0.09999999999999998" /></vTypeDistribution><flow id="flow44" type="mixed_flow44" begin="0" end="73.0" number="29" from="1328664744#0" to="133126030#0" departPos="random" arrivalPos="random" /><vTypeDistribution id="mixed_flow45"><vType id="car_flow45" accel="1.0" decel="4.5" sigma="0.5" length="5" maxSpeed="3.36" guiShape="passenger" probability="0.9" /><vType id="bus_flow45" accel="0.8" decel="4.0" sigma="0.5" length="12" maxSpeed="2.9" guiShape="bus" probability="0.09999999999999998" /></vTypeDistribution><flow id="flow45" type="mixed_flow45" begin="0" end="71.0" number="28" from="1328664744#0" to="134193294#0" departPos="random" arrivalPos="random" /><vTypeDistribution id="mixed_flow46"><vType id="car_flow46" accel="1.0" decel="4.5" sigma="0.5" length="5" maxSpeed="3.75" guiShape="passenger" probability="0.9" /><vType id="bus_flow46" accel="0.8" decel="4.0" sigma="0.5" length="12" maxSpeed="3.24" guiShape="bus" probability="0.09999999999999998" /></vTypeDistribution><flow id="flow46" type="mixed_flow46" begin="0" end="80.0" number="32" from="791826085" to="134193294#0" departPos="random" arrivalPos="random" /><vTypeDistribution id="mixed_flow47"><vType id="car_flow47" accel="1.0" decel="4.5" sigma="0.5" length="5" maxSpeed="3.5" guiShape="passenger" probability="0.9" /><vType id="bus_flow47" accel="0.8" decel="4.0" sigma="0.5" length="12" maxSpeed="3.02" guiShape="bus" probability="0.09999999999999998" /></vTypeDistribution><flow id="flow47" type="mixed_flow47" begin="0" end="89.0" number="35" from="791826085" to="485211947#0" departPos="random" arrivalPos="random" /><vTypeDistribution id="mixed_flow48"><vType id="car_flow48" accel="1.0" decel="4.5" sigma="0.5" length="5" maxSpeed="3.86" guiShape="passenger" probability="0.9" /><vType id="bus_flow48" accel="0.8" decel="4.0" sigma="0.5" length="12" maxSpeed="3.33" guiShape="bus" probability="0.09999999999999998" /></vTypeDistribution><flow id="flow48" type="mixed_flow48" begin="0" end="85.0" number="34" from="791826085" to="1328664748#0" departPos="random" arrivalPos="random" /><vTypeDistribution id="mixed_flow49"><vType id="car_flow49" accel="1.0" decel="4.5" sigma="0.5" length="5" maxSpeed="4.15" guiShape="passenger" probability="0.9" /><vType id="bus_flow49" accel="0.8" decel="4.0" sigma="0.5" length="12" maxSpeed="3.58" guiShape="bus" probability="0.09999999999999998" /></vTypeDistribution><flow id="flow49" type="mixed_flow49" begin="0" end="57.0" number="22" from="380351865#0" to="1318793173#0" departPos="random" arrivalPos="random" /><vTypeDistribution id="mixed_flow50"><vType id="car_flow50" accel="1.0" decel="4.5" sigma="0.5" length="5" maxSpeed="4.37" guiShape="passenger" probability="0.9" /><vType id="bus_flow50" accel="0.8" decel="4.0" sigma="0.5" length="12" maxSpeed="3.78" guiShape="bus" probability="0.09999999999999998" /></vTypeDistribution><flow id="flow50" type="mixed_flow50" begin="0" end="79.0" number="31" from="380351865#0" to="133126031#0" departPos="random" arrivalPos="random" /><vTypeDistribution id="mixed_flow51"><vType id="car_flow51" accel="1.0" decel="4.5" sigma="0.5" length="5" maxSpeed="4.87" guiShape="passenger" probability="0.9" /><vType id="bus_flow51" accel="0.8" decel="4.0" sigma="0.5" length="12" maxSpeed="4.21" guiShape="bus" probability="0.09999999999999998" /></vTypeDistribution><flow id="flow51" type="mixed_flow51" begin="0" end="58.0" number="23" from="380351865#0" to="1318893695#0" departPos="random" arrivalPos="random" /><vTypeDistribution id="mixed_flow52"><vType id="car_flow52" accel="1.0" decel="4.5" sigma="0.5" length="5" maxSpeed="5.15" guiShape="passenger" probability="0.9" /><vType id="bus_flow52" accel="0.8" decel="4.0" sigma="0.5" length="12" maxSpeed="4.45" guiShape="bus" probability="0.09999999999999998" /></vTypeDistribution><flow id="flow52" type="mixed_flow52" begin="0" end="44.0" number="17" from="-138002006#3" to="-422986370#2" departPos="random" arrivalPos="random" /><vTypeDistribution id="mixed_flow53"><vType id="car_flow53" accel="1.0" decel="4.5" sigma="0.5" length="5" maxSpeed="4.52" guiShape="passenger" probability="0.9" /><vType id="bus_flow53" accel="0.8" decel="4.0" sigma="0.5" length="12" maxSpeed="3.9" guiShape="bus" probability="0.09999999999999998" /></vTypeDistribution><flow id="flow53" type="mixed_flow53" begin="0" end="38.0" number="15" from="-138002006#3" to="1341093415#0" departPos="random" arrivalPos="random" /><vTypeDistribution id="mixed_flow54"><vType id="car_flow54" accel="1.0" decel="4.5" sigma="0.5" length="5" maxSpeed="4.58" guiShape="passenger" probability="0.9" /><vType id="bus_flow54" accel="0.8" decel="4.0" sigma="0.5" length="12" maxSpeed="3.95" guiShape="bus" probability="0.09999999999999998" /></vTypeDistribution><flow id="flow54" type="mixed_flow54" begin="0" end="50.0" number="20" from="138002006#0" to="380351865#0" departPos="random" arrivalPos="random" /><vTypeDistribution id="mixed_flow55"><vType id="car_flow55" accel="1.0" decel="4.5" sigma="0.5" length="5" maxSpeed="4.43" guiShape="passenger" probability="0.9" /><vType id="bus_flow55" accel="0.8" decel="4.0" sigma="0.5" length="12" maxSpeed="3.82" guiShape="bus" probability="0.09999999999999998" /></vTypeDistribution><flow id="flow55" type="mixed_flow55" begin="0" end="39.0" number="15" from="138002006#0" to="1369578052#0" departPos="random" arrivalPos="random" /><vTypeDistribution id="mixed_flow56"><vType id="car_flow56" accel="1.0" decel="4.5" sigma="0.5" length="5" maxSpeed="6.17" guiShape="passenger" probability="0.9" /><vType id="bus_flow56" accel="0.8" decel="4.0" sigma="0.5" length="12" maxSpeed="5.33" guiShape="bus" probability="0.09999999999999998" /></vTypeDistribution><flow id="flow56" type="mixed_flow56" begin="0" end="46.0" number="18" from="1341093415#0" to="1341093416#0" departPos="random" arrivalPos="random" /><vTypeDistribution id="mixed_flow57"><vType id="car_flow57" accel="1.0" decel="4.5" sigma="0.5" length="5" maxSpeed="5.54" guiShape="passenger" probability="0.9" /><vType id="bus_flow57" accel="0.8" decel="4.0" sigma="0.5" length="12" maxSpeed="4.79" guiShape="bus" probability="0.09999999999999998" /></vTypeDistribution><flow id="flow57" type="mixed_flow57" begin="0" end="54.0" number="21" from="1341093415#0" to="791826085" departPos="random" arrivalPos="random" /><vTypeDistribution id="mixed_flow58"><vType id="car_flow58" accel="1.0" decel="4.5" sigma="0.5" length="5" maxSpeed="4.97" guiShape="passenger" probability="0.9" /><vType id="bus_flow58" accel="0.8" decel="4.0" sigma="0.5" length="12" maxSpeed="4.29" guiShape="bus" probability="0.09999999999999998" /></vTypeDistribution><flow id="flow58" type="mixed_flow58" begin="0" end="35.0" number="14" from="1341093415#0" to="409155823" departPos="random" arrivalPos="random" /><vTypeDistribution id="mixed_flow59"><vType id="car_flow59" accel="1.0" decel="4.5" sigma="0.5" length="5" maxSpeed="5.01" guiShape="passenger" probability="0.9" /><vType id="bus_flow59" accel="0.8" decel="4.0" sigma="0.5" length="12" maxSpeed="4.33" guiShape="bus" probability="0.09999999999999998" /></vTypeDistribution><flow id="flow59" type="mixed_flow59" begin="0" end="56.0" number="22" from="186407685" to="380351865#0" departPos="random" arrivalPos="random" /><vTypeDistribution id="mixed_flow60"><vType id="car_flow60" accel="1.0" decel="4.5" sigma="0.5" length="5" maxSpeed="3.89" guiShape="passenger" probability="0.9" /><vType id="bus_flow60" accel="0.8" decel="4.0" sigma="0.5" length="12" maxSpeed="3.36" guiShape="bus" probability="0.09999999999999998" /></vTypeDistribution><flow id="flow60" type="mixed_flow60" begin="0" end="43.0" number="17" from="186407685" to="-138002006#3" departPos="random" arrivalPos="random" /><vTypeDistribution id="mixed_flow61"><vType id="car_flow61" accel="1.0" decel="4.5" sigma="0.5" length="5" maxSpeed="3.87" guiShape="passenger" probability="0.9" /><vType id="bus_flow61" accel="0.8" decel="4.0" sigma="0.5" length="12" maxSpeed="3.34" guiShape="bus" probability="0.09999999999999998" /></vTypeDistribution><flow id="flow61" type="mixed_flow61" begin="0" end="58.0" number="23" from="186407685" to="1369578052#0" departPos="random" arrivalPos="random" /><vTypeDistribution id="mixed_flow62"><vType id="car_flow62" accel="1.0" decel="4.5" sigma="0.5" length="5" maxSpeed="5.34" guiShape="passenger" probability="0.9" /><vType id="bus_flow62" accel="0.8" decel="4.0" sigma="0.5" length="12" maxSpeed="4.61" guiShape="bus" probability="0.09999999999999998" /></vTypeDistribution><flow id="flow62" type="mixed_flow62" begin="0" end="47.0" number="18" from="186407684#0" to="791826085" departPos="random" arrivalPos="random" /><vTypeDistribution id="mixed_flow63"><vType id="car_flow63" accel="1.0" decel="4.5" sigma="0.5" length="5" maxSpeed="5.86" guiShape="passenger" probability="0.9" /><vType id="bus_flow63" accel="0.8" decel="4.0" sigma="0.5" length="12" maxSpeed="5.06" guiShape="bus" probability="0.09999999999999998" /></vTypeDistribution><flow id="flow63" type="mixed_flow63" begin="0" end="40.0" number="16" from="186407684#0" to="1341093416#0" departPos="random" arrivalPos="random" /><vTypeDistribution id="mixed_flow64"><vType id="car_flow64" accel="1.0" decel="4.5" sigma="0.5" length="5" maxSpeed="4.59" guiShape="passenger" probability="0.9" /><vType id="bus_flow64" accel="0.8" decel="4.0" sigma="0.5" length="12" maxSpeed="3.96" guiShape="bus" probability="0.09999999999999998" /></vTypeDistribution><flow id="flow64" type="mixed_flow64"