<?xml version='1.0' encoding='UTF-8'?>
<routes>
  <vType id="car" accel="1.0" decel="4.5" length="5" maxSpeed="16.6" sigma="0.5"/>
  <route id="route_4_duration_20250327_1920" edges="291974733#0 379698350#0"/>
  <flow id="flow_route_4_duration_20250327_1920" type="car" route="route_4_duration_20250327_1920" begin="0" end="60" number="1" departPos="random" arrivalPos="random"/>
  <route id="route_5_duration_20250327_1920" edges="291974733#0 1342054204"/>
  <flow id="flow_route_5_duration_20250327_1920" type="car" route="route_5_duration_20250327_1920" begin="0" end="60" number="4" departPos="random" arrivalPos="random"/>
  <route id="route_6_duration_20250327_1920" edges="1252820505#0 379698350#0"/>
  <flow id="flow_route_6_duration_20250327_1920" type="car" route="route_6_duration_20250327_1920" begin="0" end="60" number="6" departPos="random" arrivalPos="random"/>
  <route id="route_7_duration_20250327_1920" edges="133000078#0 137406408#0"/>
  <flow id="flow_route_7_duration_20250327_1920" type="car" route="route_7_duration_20250327_1920" begin="0" end="60" number="3" departPos="random" arrivalPos="random"/>
  <route id="route_8_duration_20250327_1920" edges="133000078#0 1235147073 1235147073.116"/>
  <flow id="flow_route_8_duration_20250327_1920" type="car" route="route_8_duration_20250327_1920" begin="0" end="60" number="16" departPos="random" arrivalPos="random"/>
  <route id="route_10_duration_20250327_1920" edges="1252820505#0 1235147073 1235147073.116"/>
  <flow id="flow_route_10_duration_20250327_1920" type="car" route="route_10_duration_20250327_1920" begin="0" end="60" number="5" departPos="random" arrivalPos="random"/>
  <route id="route_11_duration_20250327_1920" edges="1252820505#0 137406408#0"/>
  <flow id="flow_route_11_duration_20250327_1920" type="car" route="route_11_duration_20250327_1920" begin="0" end="60" number="5" departPos="random" arrivalPos="random"/>
  <route id="route_12_duration_20250327_1920" edges="133000078#0 1342054204"/>
  <flow id="flow_route_12_duration_20250327_1920" type="car" route="route_12_duration_20250327_1920" begin="0" end="60" number="22" departPos="random" arrivalPos="random"/>
  <route id="route_22_duration_20250327_1920" edges="137415945#0 137415945#0.16 1342054204"/>
  <flow id="flow_route_22_duration_20250327_1920" type="car" route="route_22_duration_20250327_1920" begin="0" end="60" number="34" departPos="random" arrivalPos="random"/>
  <route id="route_23_duration_20250327_1920" edges="137415945#0 137415945#0.16 379698350#0"/>
  <flow id="flow_route_23_duration_20250327_1920" type="car" route="route_23_duration_20250327_1920" begin="0" end="60" number="16" departPos="random" arrivalPos="random"/>
  <route id="route_24_duration_20250327_1920" edges="137415945#0 137415945#0.16 137406408#0"/>
  <flow id="flow_route_24_duration_20250327_1920" type="car" route="route_24_duration_20250327_1920" begin="0" end="60" number="13" departPos="random" arrivalPos="random"/>
  <route id="route_2_duration_20250327_1920" edges="1318793173#0 133126013#0 189835257"/>
  <flow id="flow_route_2_duration_20250327_1920" type="car" route="route_2_duration_20250327_1920" begin="0" end="60" number="1252" departPos="random" arrivalPos="random"/>
  <route id="route_3_duration_20250327_1920" edges="1318793173#0 291974733#0"/>
  <flow id="flow_route_3_duration_20250327_1920" type="car" route="route_3_duration_20250327_1920" begin="0" end="60" number="155" departPos="random" arrivalPos="random"/>
  <route id="route_9_duration_20250327_1920" edges="1318793173#0 1254771875#0 1254771874#0"/>
  <flow id="flow_route_9_duration_20250327_1920" type="car" route="route_9_duration_20250327_1920" begin="0" end="60" number="46" departPos="random" arrivalPos="random"/>
  <route id="route_13_duration_20250327_1920" edges="1252820503#0 291974733#0"/>
  <flow id="flow_route_13_duration_20250327_1920" type="car" route="route_13_duration_20250327_1920" begin="0" end="60" number="62" departPos="random" arrivalPos="random"/>
  <route id="route_14_duration_20250327_1920" edges="1252820503#0 1254771875#0 1254771874#0"/>
  <flow id="flow_route_14_duration_20250327_1920" type="car" route="route_14_duration_20250327_1920" begin="0" end="60" number="29" departPos="random" arrivalPos="random"/>
  <route id="route_15_duration_20250327_1920" edges="1252820503#0 133126040#0"/>
  <flow id="flow_route_15_duration_20250327_1920" type="car" route="route_15_duration_20250327_1920" begin="0" end="60" number="35" departPos="random" arrivalPos="random"/>
  <route id="route_16_duration_20250327_1920" edges="137406408#0 133126040#0"/>
  <flow id="flow_route_16_duration_20250327_1920" type="car" route="route_16_duration_20250327_1920" begin="0" end="60" number="17" departPos="random" arrivalPos="random"/>
  <route id="route_17_duration_20250327_1920" edges="137406408#0 1254771875#0 1254771874#0"/>
  <flow id="flow_route_17_duration_20250327_1920" type="car" route="route_17_duration_20250327_1920" begin="0" end="60" number="5" departPos="random" arrivalPos="random"/>
  <route id="route_0_duration_20250327_1920" edges="1318793176#1 1318793176#1.11 133126031#0"/>
  <flow id="flow_route_0_duration_20250327_1920" type="car" route="route_0_duration_20250327_1920" begin="0" end="60" number="511" departPos="random" arrivalPos="random"/>
  <route id="route_1_duration_20250327_1920" edges="1318793176#1 1318793176#1.11 1318793173#0"/>
  <flow id="flow_route_1_duration_20250327_1920" type="car" route="route_1_duration_20250327_1920" begin="0" end="60" number="187" departPos="random" arrivalPos="random"/>
  <route id="route_18_duration_20250327_1920" edges="133126040#0 1318893695#0"/>
  <flow id="flow_route_18_duration_20250327_1920" type="car" route="route_18_duration_20250327_1920" begin="0" end="60" number="1" departPos="random" arrivalPos="random"/>
  <route id="route_19_duration_20250327_1920" edges="133126040#0 133126031#0"/>
  <flow id="flow_route_19_duration_20250327_1920" type="car" route="route_19_duration_20250327_1920" begin="0" end="60" number="27" departPos="random" arrivalPos="random"/>
  <route id="route_47_duration_20250327_1920" edges="380351865#0 380351865#0.21 1318793173#0"/>
  <flow id="flow_route_47_duration_20250327_1920" type="car" route="route_47_duration_20250327_1920" begin="0" end="60" number="12" departPos="random" arrivalPos="random"/>
  <route id="route_48_duration_20250327_1920" edges="380351865#0 380351865#0.21 133126031#0"/>
  <flow id="flow_route_48_duration_20250327_1920" type="car" route="route_48_duration_20250327_1920" begin="0" end="60" number="82" departPos="random" arrivalPos="random"/>
  <route id="route_49_duration_20250327_1920" edges="380351865#0 380351865#0.21 1318893695#0"/>
  <flow id="flow_route_49_duration_20250327_1920" type="car" route="route_49_duration_20250327_1920" begin="0" end="60" number="16" departPos="random" arrivalPos="random"/>
  <route id="route_28_duration_20250327_1920" edges="-422986370#2 -430406005#1"/>
  <flow id="flow_route_28_duration_20250327_1920" type="car" route="route_28_duration_20250327_1920" begin="0" end="60" number="9" departPos="random" arrivalPos="random"/>
  <route id="route_29_duration_20250327_1920" edges="-422986370#2 485211287#0 137415945#0"/>
  <flow id="flow_route_29_duration_20250327_1920" type="car" route="route_29_duration_20250327_1920" begin="0" end="60" number="19" departPos="random" arrivalPos="random"/>
  <route id="route_30_duration_20250327_1920" edges="1235147073.116 133126026#0 133126030#0"/>
  <flow id="flow_route_30_duration_20250327_1920" type="car" route="route_30_duration_20250327_1920" begin="0" end="60" number="6" departPos="random" arrivalPos="random"/>
  <route id="route_31_duration_20250327_1920" edges="1235147073.116 133126026#0 -430406005#1"/>
  <flow id="flow_route_31_duration_20250327_1920" type="car" route="route_31_duration_20250327_1920" begin="0" end="60" number="25" departPos="random" arrivalPos="random"/>
  <route id="route_32_duration_20250327_1920" edges="1235147073.116 133126026#0 1369578054"/>
  <flow id="flow_route_32_duration_20250327_1920" type="car" route="route_32_duration_20250327_1920" begin="0" end="60" number="37" departPos="random" arrivalPos="random"/>
  <route id="route_33_duration_20250327_1920" edges="133126008#0 1369578054"/>
  <flow id="flow_route_33_duration_20250327_1920" type="car" route="route_33_duration_20250327_1920" begin="0" end="60" number="6" departPos="random" arrivalPos="random"/>
  <route id="route_34_duration_20250327_1920" edges="133126008#0 133126030#0"/>
  <flow id="flow_route_34_duration_20250327_1920" type="car" route="route_34_duration_20250327_1920" begin="0" end="60" number="11" departPos="random" arrivalPos="random"/>
  <route id="route_35_duration_20250327_1920" edges="485211947#0 1369578054"/>
  <flow id="flow_route_35_duration_20250327_1920" type="car" route="route_35_duration_20250327_1920" begin="0" end="60" number="31" departPos="random" arrivalPos="random"/>
  <route id="route_36_duration_20250327_1920" edges="485211947#0 485211287#0 137415945#0"/>
  <flow id="flow_route_36_duration_20250327_1920" type="car" route="route_36_duration_20250327_1920" begin="0" end="60" number="30" departPos="random" arrivalPos="random"/>
  <route id="route_37_duration_20250327_1920" edges="485211947#0 -430406005#1"/>
  <flow id="flow_route_37_duration_20250327_1920" type="car" route="route_37_duration_20250327_1920" begin="0" end="60" number="15" departPos="random" arrivalPos="random"/>
  <route id="route_25_duration_20250327_1920" edges="1254771874#0 1341093415#0"/>
  <flow id="flow_route_25_duration_20250327_1920" type="car" route="route_25_duration_20250327_1920" begin="0" end="60" number="11" departPos="random" arrivalPos="random"/>
  <route id="route_26_duration_20250327_1920" edges="1254771874#0 -422986370#2"/>
  <flow id="flow_route_26_duration_20250327_1920" type="car" route="route_26_duration_20250327_1920" begin="0" end="60" number="9" departPos="random" arrivalPos="random"/>
  <route id="route_27_duration_20250327_1920" edges="1254771874#0 138002006#0"/>
  <flow id="flow_route_27_duration_20250327_1920" type="car" route="route_27_duration_20250327_1920" begin="0" end="60" number="24" departPos="random" arrivalPos="random"/>
  <route id="route_40_duration_20250327_1920" edges="1369578054 1341093415#0"/>
  <flow id="flow_route_40_duration_20250327_1920" type="car" route="route_40_duration_20250327_1920" begin="0" end="60" number="17" departPos="random" arrivalPos="random"/>
  <route id="route_41_duration_20250327_1920" edges="1369578054 138002006#0"/>
  <flow id="flow_route_41_duration_20250327_1920" type="car" route="route_41_duration_20250327_1920" begin="0" end="60" number="16" departPos="random" arrivalPos="random"/>
  <route id="route_50_duration_20250327_1920" edges="-138002006#3 -422986370#2"/>
  <flow id="flow_route_50_duration_20250327_1920" type="car" route="route_50_duration_20250327_1920" begin="0" end="60" number="2" departPos="random" arrivalPos="random"/>
  <route id="route_51_duration_20250327_1920" edges="-138002006#3 1341093415#0"/>
  <flow id="flow_route_51_duration_20250327_1920" type="car" route="route_51_duration_20250327_1920" begin="0" end="60" number="1" departPos="random" arrivalPos="random"/>
  <route id="route_52_duration_20250327_1920" edges="138002006#0 1328467333 380351865#0"/>
  <flow id="flow_route_52_duration_20250327_1920" type="car" route="route_52_duration_20250327_1920" begin="0" end="60" number="4" departPos="random" arrivalPos="random"/>
  <route id="route_53_duration_20250327_1920" edges="138002006#0 1369578052#0"/>
  <flow id="flow_route_53_duration_20250327_1920" type="car" route="route_53_duration_20250327_1920" begin="0" end="60" number="47" departPos="random" arrivalPos="random"/>
  <route id="route_57_duration_20250327_1920" edges="186407685 1328467333 380351865#0"/>
  <flow id="flow_route_57_duration_20250327_1920" type="car" route="route_57_duration_20250327_1920" begin="0" end="60" number="4" departPos="random" arrivalPos="random"/>
  <route id="route_58_duration_20250327_1920" edges="186407685 -138002006#3"/>
  <flow id="flow_route_58_duration_20250327_1920" type="car" route="route_58_duration_20250327_1920" begin="0" end="60" number="1" departPos="random" arrivalPos="random"/>
  <route id="route_59_duration_20250327_1920" edges="186407685 1369578052#0"/>
  <flow id="flow_route_59_duration_20250327_1920" type="car" route="route_59_duration_20250327_1920" begin="0" end="60" number="32" departPos="random" arrivalPos="random"/>
  <route id="route_66_duration_20250327_1920" edges="-138002002#2 -138002006#3"/>
  <flow id="flow_route_66_duration_20250327_1920" type="car" route="route_66_duration_20250327_1920" begin="0" end="60" number="4" departPos="random" arrivalPos="random"/>
  <route id="route_67_duration_20250327_1920" edges="-138002002#2 1328467333 380351865#0"/>
  <flow id="flow_route_67_duration_20250327_1920" type="car" route="route_67_duration_20250327_1920" begin="0" end="60" number="9" departPos="random" arrivalPos="random"/>
  <route id="route_63_duration_20250327_1920" edges="133131666#1 133131710#0 133342692#0"/>
  <flow id="flow_route_63_duration_20250327_1920" type="car" route="route_63_duration_20250327_1920" begin="0" end="60" number="10" departPos="random" arrivalPos="random"/>
  <route id="route_64_duration_20250327_1920" edges="133131666#1 133131710#0 -138002002#2"/>
  <flow id="flow_route_64_duration_20250327_1920" type="car" route="route_64_duration_20250327_1920" begin="0" end="60" number="23" departPos="random" arrivalPos="random"/>
  <route id="route_65_duration_20250327_1920" edges="133131666#1 133131710#0 138002016#0"/>
  <flow id="flow_route_65_duration_20250327_1920" type="car" route="route_65_duration_20250327_1920" begin="0" end="60" number="23" departPos="random" arrivalPos="random"/>
  <route id="route_68_duration_20250327_1920" edges="1253209803#0 -138002002#2"/>
  <flow id="flow_route_68_duration_20250327_1920" type="car" route="route_68_duration_20250327_1920" begin="0" end="60" number="31" departPos="random" arrivalPos="random"/>
  <route id="route_69_duration_20250327_1920" edges="1253209803#0 689013160#1 380585337#0"/>
  <flow id="flow_route_69_duration_20250327_1920" type="car" route="route_69_duration_20250327_1920" begin="0" end="60" number="1" departPos="random" arrivalPos="random"/>
  <route id="route_70_duration_20250327_1920" edges="1253209803#0 133342692#0"/>
  <flow id="flow_route_70_duration_20250327_1920" type="car" route="route_70_duration_20250327_1920" begin="0" end="60" number="10" departPos="random" arrivalPos="random"/>
  <route id="route_71_duration_20250327_1920" edges="1369578052#0 138002016#0"/>
  <flow id="flow_route_71_duration_20250327_1920" type="car" route="route_71_duration_20250327_1920" begin="0" end="60" number="18" departPos="random" arrivalPos="random"/>
  <route id="route_72_duration_20250327_1920" edges="1369578052#0 133342692#0"/>
  <flow id="flow_route_72_duration_20250327_1920" type="car" route="route_72_duration_20250327_1920" begin="0" end="60" number="15" departPos="random" arrivalPos="random"/>
  <route id="route_73_duration_20250327_1920" edges="380593307#0 689013160#1 380585337#0"/>
  <flow id="flow_route_73_duration_20250327_1920" type="car" route="route_73_duration_20250327_1920" begin="0" end="60" number="12" departPos="random" arrivalPos="random"/>
  <route id="route_74_duration_20250327_1920" edges="380593307#0 138002016#0"/>
  <flow id="flow_route_74_duration_20250327_1920" type="car" route="route_74_duration_20250327_1920" begin="0" end="60" number="24" departPos="random" arrivalPos="random"/>
  <route id="route_75_duration_20250327_1920" edges="380593307#0 -138002002#2"/>
  <flow id="flow_route_75_duration_20250327_1920" type="car" route="route_75_duration_20250327_1920" begin="0" end="60" number="19" departPos="random" arrivalPos="random"/>
  <route id="route_76_duration_20250327_1920" edges="133342692#0 133000063"/>
  <flow id="flow_route_76_duration_20250327_1920" type="car" route="route_76_duration_20250327_1920" begin="0" end="60" number="9" departPos="random" arrivalPos="random"/>
  <route id="route_77_duration_20250327_1920" edges="133342692#0 423956929"/>
  <flow id="flow_route_77_duration_20250327_1920" type="car" route="route_77_duration_20250327_1920" begin="0" end="60" number="10" departPos="random" arrivalPos="random"/>
  <route id="route_78_duration_20250327_1920" edges="133342692#0 136617981"/>
  <flow id="flow_route_78_duration_20250327_1920" type="car" route="route_78_duration_20250327_1920" begin="0" end="60" number="15" departPos="random" arrivalPos="random"/>
  <route id="route_79_duration_20250327_1920" edges="380344611#0 423956929"/>
  <flow id="flow_route_79_duration_20250327_1920" type="car" route="route_79_duration_20250327_1920" begin="0" end="60" number="16" departPos="random" arrivalPos="random"/>
  <route id="route_80_duration_20250327_1920" edges="380344611#0 380593307#0"/>
  <flow id="flow_route_80_duration_20250327_1920" type="car" route="route_80_duration_20250327_1920" begin="0" end="60" number="10" departPos="random" arrivalPos="random"/>
  <route id="route_81_duration_20250327_1920" edges="380344611#0 133000063"/>
  <flow id="flow_route_81_duration_20250327_1920" type="car" route="route_81_duration_20250327_1920" begin="0" end="60" number="37" departPos="random" arrivalPos="random"/>
  <route id="route_84_duration_20250327_1920" edges="1091883842 136617981"/>
  <flow id="flow_route_84_duration_20250327_1920" type="car" route="route_84_duration_20250327_1920" begin="0" end="60" number="43" departPos="random" arrivalPos="random"/>
  <route id="route_85_duration_20250327_1920" edges="1091883842 133000063"/>
  <flow id="flow_route_85_duration_20250327_1920" type="car" route="route_85_duration_20250327_1920" begin="0" end="60" number="4" departPos="random" arrivalPos="random"/>
  <route id="route_89_duration_20250327_1920" edges="380585338#0 380593307#0"/>
  <flow id="flow_route_89_duration_20250327_1920" type="car" route="route_89_duration_20250327_1920" begin="0" end="60" number="42" departPos="random" arrivalPos="random"/>
  <route id="route_90_duration_20250327_1920" edges="380585338#0 136617981"/>
  <flow id="flow_route_90_duration_20250327_1920" type="car" route="route_90_duration_20250327_1920" begin="0" end="60" number="12" departPos="random" arrivalPos="random"/>
  <route id="route_62_duration_20250327_1920" edges="409155823 1091883842"/>
  <flow id="flow_route_62_duration_20250327_1920" type="car" route="route_62_duration_20250327_1920" begin="0" end="60" number="11" departPos="random" arrivalPos="random"/>
  <route id="route_82_duration_20250327_1920" edges="423956929 186407684#0"/>
  <flow id="flow_route_82_duration_20250327_1920" type="car" route="route_82_duration_20250327_1920" begin="0" end="60" number="1" departPos="random" arrivalPos="random"/>
  <route id="route_83_duration_20250327_1920" edges="423956929 186407685"/>
  <flow id="flow_route_83_duration_20250327_1920" type="car" route="route_83_duration_20250327_1920" begin="0" end="60" number="4" departPos="random" arrivalPos="random"/>
  <route id="route_86_duration_20250327_1920" edges="430416184 186407685"/>
  <flow id="flow_route_86_duration_20250327_1920" type="car" route="route_86_duration_20250327_1920" begin="0" end="60" number="13" departPos="random" arrivalPos="random"/>
  <route id="route_87_duration_20250327_1920" edges="430416184 1091883842"/>
  <flow id="flow_route_87_duration_20250327_1920" type="car" route="route_87_duration_20250327_1920" begin="0" end="60" number="22" departPos="random" arrivalPos="random"/>
  <route id="route_88_duration_20250327_1920" edges="430416184 186407684#0"/>
  <flow id="flow_route_88_duration_20250327_1920" type="car" route="route_88_duration_20250327_1920" begin="0" end="60" number="37" departPos="random" arrivalPos="random"/>
  <route id="route_54_duration_20250327_1920" edges="1341093415#0 1341093416#0"/>
  <flow id="flow_route_54_duration_20250327_1920" type="car" route="route_54_duration_20250327_1920" begin="0" end="60" number="8" departPos="random" arrivalPos="random"/>
  <route id="route_55_duration_20250327_1920" edges="1341093415#0 791826085"/>
  <flow id="flow_route_55_duration_20250327_1920" type="car" route="route_55_duration_20250327_1920" begin="0" end="60" number="6" departPos="random" arrivalPos="random"/>
  <route id="route_56_duration_20250327_1920" edges="1341093415#0 409155823"/>
  <flow id="flow_route_56_duration_20250327_1920" type="car" route="route_56_duration_20250327_1920" begin="0" end="60" number="5" departPos="random" arrivalPos="random"/>
  <route id="route_60_duration_20250327_1920" edges="186407684#0 791826085"/>
  <flow id="flow_route_60_duration_20250327_1920" type="car" route="route_60_duration_20250327_1920" begin="0" end="60" number="8" departPos="random" arrivalPos="random"/>
  <route id="route_61_duration_20250327_1920" edges="186407684#0 1341093416#0"/>
  <flow id="flow_route_61_duration_20250327_1920" type="car" route="route_61_duration_20250327_1920" begin="0" end="60" number="6" departPos="random" arrivalPos="random"/>
  <route id="route_38_duration_20250327_1920" edges="133126030#0 134193294#0"/>
  <flow id="flow_route_38_duration_20250327_1920" type="car" route="route_38_duration_20250327_1920" begin="0" end="60" number="16" departPos="random" arrivalPos="random"/>
  <route id="route_39_duration_20250327_1920" edges="133126030#0 1328664748#0"/>
  <flow id="flow_route_39_duration_20250327_1920" type="car" route="route_39_duration_20250327_1920" begin="0" end="60" number="3" departPos="random" arrivalPos="random"/>
  <route id="route_42_duration_20250327_1920" edges="1328664744#0 485211947#0 -430406005#1 133126008#0 133126030#0"/>
  <flow id="flow_route_42_duration_20250327_1920" type="car" route="route_42_duration_20250327_1920" begin="0" end="60" number="5" departPos="random" arrivalPos="random"/>
  <route id="route_43_duration_20250327_1920" edges="1328664744#0 134193294#0"/>
  <flow id="flow_route_43_duration_20250327_1920" type="car" route="route_43_duration_20250327_1920" begin="0" end="60" number="22" departPos="random" arrivalPos="random"/>
  <route id="route_44_duration_20250327_1920" edges="791826085 134193294#0"/>
  <flow id="flow_route_44_duration_20250327_1920" type="car" route="route_44_duration_20250327_1920" begin="0" end="60" number="45" departPos="random" arrivalPos="random"/>
  <route id="route_45_duration_20250327_1920" edges="791826085 485211947#0"/>
  <flow id="flow_route_45_duration_20250327_1920" type="car" route="route_45_duration_20250327_1920" begin="0" end="60" number="27" departPos="random" arrivalPos="random"/>
  <route id="route_46_duration_20250327_1920" edges="791826085 1328664748#0"/>
  <flow id="flow_route_46_duration_20250327_1920" type="car" route="route_46_duration_20250327_1920" begin="0" end="60" number="20" departPos="random" arrivalPos="random"/>
  <route id="route_97_duration_20250327_1920" edges="1328664748#0 135474719#0"/>
  <flow id="flow_route_97_duration_20250327_1920" type="car" route="route_97_duration_20250327_1920" begin="0" end="60" number="5" departPos="random" arrivalPos="random"/>
  <route id="route_98_duration_20250327_1920" edges="1328664748#0 177211987#1"/>
  <flow id="flow_route_98_duration_20250327_1920" type="car" route="route_98_duration_20250327_1920" begin="0" end="60" number="2" departPos="random" arrivalPos="random"/>
  <route id="route_99_duration_20250327_1920" edges="1328664748#0 1253188486#8"/>
  <flow id="flow_route_99_duration_20250327_1920" type="car" route="route_99_duration_20250327_1920" begin="0" end="60" number="11" departPos="random" arrivalPos="random"/>
  <route id="route_108_duration_20250327_1920" edges="1254519225#0.109 799116519 135474719#0"/>
  <flow id="flow_route_108_duration_20250327_1920" type="car" route="route_108_duration_20250327_1920" begin="0" end="60" number="7" departPos="random" arrivalPos="random"/>
  <route id="route_109_duration_20250327_1920" edges="1254519225#0.109 799116519 1328664744#0"/>
  <flow id="flow_route_109_duration_20250327_1920" type="car" route="route_109_duration_20250327_1920" begin="0" end="60" number="24" departPos="random" arrivalPos="random"/>
  <route id="route_110_duration_20250327_1920" edges="1254519225#0.109 799116519 177211987#1"/>
  <flow id="flow_route_110_duration_20250327_1920" type="car" route="route_110_duration_20250327_1920" begin="0" end="60" number="10" departPos="random" arrivalPos="random"/>
  <route id="route_113_duration_20250327_1920" edges="1253188486#4 1253188486#8"/>
  <flow id="flow_route_113_duration_20250327_1920" type="car" route="route_113_duration_20250327_1920" begin="0" end="60" number="64" departPos="random" arrivalPos="random"/>
  <route id="route_114_duration_20250327_1920" edges="1253188486#4 177211987#1"/>
  <flow id="flow_route_114_duration_20250327_1920" type="car" route="route_114_duration_20250327_1920" begin="0" end="60" number="5" departPos="random" arrivalPos="random"/>
  <route id="route_115_duration_20250327_1920" edges="1253188486#4 1328664744#0"/>
  <flow id="flow_route_115_duration_20250327_1920" type="car" route="route_115_duration_20250327_1920" begin="0" end="60" number="33" departPos="random" arrivalPos="random"/>
  <route id="route_118_duration_20250327_1920" edges="134194079#0 1328664744#0"/>
  <flow id="flow_route_118_duration_20250327_1920" type="car" route="route_118_duration_20250327_1920" begin="0" end="60" number="59" departPos="random" arrivalPos="random"/>
  <route id="route_119_duration_20250327_1920" edges="134194079#0 1253188486#8"/>
  <flow id="flow_route_119_duration_20250327_1920" type="car" route="route_119_duration_20250327_1920" begin="0" end="60" number="62" departPos="random" arrivalPos="random"/>
  <route id="route_134_duration_20250327_1920" edges="688883939#0 809719540#0"/>
  <flow id="flow_route_134_duration_20250327_1920" type="car" route="route_134_duration_20250327_1920" begin="0" end="60" number="1" departPos="random" arrivalPos="random"/>
  <route id="route_135_duration_20250327_1920" edges="688883939#0 1254157399#1"/>
  <flow id="flow_route_135_duration_20250327_1920" type="car" route="route_135_duration_20250327_1920" begin="0" end="60" number="3" departPos="random" arrivalPos="random"/>
  <route id="route_136_duration_20250327_1920" edges="688883939#0 1310781105#0 186410975#0"/>
  <flow id="flow_route_136_duration_20250327_1920" type="car" route="route_136_duration_20250327_1920" begin="0" end="60" number="5" departPos="random" arrivalPos="random"/>
  <route id="route_137_duration_20250327_1920" edges="1310781056 1310781055#0 714011134#0"/>
  <flow id="flow_route_137_duration_20250327_1920" type="car" route="route_137_duration_20250327_1920" begin="0" end="60" number="3" departPos="random" arrivalPos="random"/>
  <route id="route_138_duration_20250327_1920" edges="1310781056 1310781055#0 1310781105#0 186410975#0"/>
  <flow id="flow_route_138_duration_20250327_1920" type="car" route="route_138_duration_20250327_1920" begin="0" end="60" number="4" departPos="random" arrivalPos="random"/>
  <route id="route_139_duration_20250327_1920" edges="1310781056 1310781055#0 1254157399#1"/>
  <flow id="flow_route_139_duration_20250327_1920" type="car" route="route_139_duration_20250327_1920" begin="0" end="60" number="12" departPos="random" arrivalPos="random"/>
  <route id="route_151_duration_20250327_1920" edges="31861355#0 1310781105#0 186410975#0"/>
  <flow id="flow_route_151_duration_20250327_1920" type="car" route="route_151_duration_20250327_1920" begin="0" end="60" number="68" departPos="random" arrivalPos="random"/>
  <route id="route_152_duration_20250327_1920" edges="31861355#0 714011134#0"/>
  <flow id="flow_route_152_duration_20250327_1920" type="car" route="route_152_duration_20250327_1920" begin="0" end="60" number="51" departPos="random" arrivalPos="random"/>
  <route id="route_153_duration_20250327_1920" edges="31861355#0 809719540#0"/>
  <flow id="flow_route_153_duration_20250327_1920" type="car" route="route_153_duration_20250327_1920" begin="0" end="60" number="62" departPos="random" arrivalPos="random"/>
  <route id="route_140_duration_20250327_1920" edges="809719540#0 -809772643#1"/>
  <flow id="flow_route_140_duration_20250327_1920" type="car" route="route_140_duration_20250327_1920" begin="0" end="60" number="33" departPos="random" arrivalPos="random"/>
  <route id="route_141_duration_20250327_1920" edges="809719540#0 809937918#0 683079388#0 683079387#1"/>
  <flow id="flow_route_141_duration_20250327_1920" type="car" route="route_141_duration_20250327_1920" begin="0" end="60" number="21" departPos="random" arrivalPos="random"/>
  <route id="route_142_duration_20250327_1920" edges="1253222187#0 809937918#0 683079388#0"/>
  <flow id="flow_route_142_duration_20250327_1920" type="car" route="route_142_duration_20250327_1920" begin="0" end="60" number="48" departPos="random" arrivalPos="random"/>
  <route id="route_143_duration_20250327_1920" edges="1253222187#0 1310781056-AddedOnRampEdge 1310781056"/>
  <flow id="flow_route_143_duration_20250327_1920" type="car" route="route_143_duration_20250327_1920" begin="0" end="60" number="25" departPos="random" arrivalPos="random"/>
  <route id="route_146_duration_20250327_1920" edges="683079387#1 683079387#1.14 -809772643#1"/>
  <flow id="flow_route_146_duration_20250327_1920" type="car" route="route_146_duration_20250327_1920" begin="0" end="60" number="36" departPos="random" arrivalPos="random"/>
  <route id="route_147_duration_20250327_1920" edges="683079387#1 683079387#1.14 1310781056-AddedOnRampEdge 1310781056"/>
  <flow id="flow_route_147_duration_20250327_1920" type="car" route="route_147_duration_20250327_1920" begin="0" end="60" number="4" departPos="random" arrivalPos="random"/>