<?xml version='1.0' encoding='UTF-8'?>
<routes>
  <vType id="car" accel="1.0" decel="4.5" length="5" maxSpeed="16.6" sigma="0.5"/>
  <route id="route_0" edges="1253222187#0 809937918#0 683079388#0"/>
  <flow id="route_0_flow" type="car" route="route_0" begin="0" end="30" number="104" departPos="random" arrivalPos="random" departSpeed="max" departLane="best"/>
  <route id="route_1" edges="186407685 1369578052#0"/>
  <flow id="route_1_flow" type="car" route="route_1" begin="0" end="30" number="300" departPos="random" arrivalPos="random" departSpeed="max" departLane="best"/>
  <route id="route_2" edges="1254771874#0 138002006#0"/>
  <flow id="route_2_flow" type="car" route="route_2" begin="0" end="30" number="65" departPos="random" arrivalPos="random" departSpeed="max" departLane="best"/>
</routes>
