<?xml version='1.0' encoding='UTF-8'?>
<routes>
  <vType id="car" accel="1.0" decel="4.5" length="5" maxSpeed="16.6" sigma="0.5"/>
  <route id="route_0" edges="-422986370#2 485211287#0 137415945#0"/>
  <flow id="route_0_flow" type="car" route="route_0" begin="0" end="30" number="165" departPos="random" arrivalPos="random" departSpeed="max" departLane="best"/>
  <route id="route_1" edges="186407685 1328467333 380351865#0"/>
  <flow id="route_1_flow" type="car" route="route_1" begin="0" end="30" number="67" departPos="random" arrivalPos="random" departSpeed="max" departLane="best"/>
</routes>
