<?xml version='1.0' encoding='UTF-8'?>
<routes>
  <vType id="car" accel="1.0" decel="4.5" length="5" maxSpeed="16.6" sigma="0.5"/>
  <route id="route_0" edges="1254519225#0.109 799116519 177211987#1"/>
  <flow id="route_0_flow" type="car" route="route_0" begin="0" end="30" number="118" departPos="random" arrivalPos="random" departSpeed="max" departLane="best"/>
  <route id="route_1" edges="133342692#0 136617981"/>
  <flow id="route_1_flow" type="car" route="route_1" begin="0" end="30" number="62" departPos="random" arrivalPos="random" departSpeed="max" departLane="best"/>
  <route id="route_2" edges="186410975#0 186409203 186409203-AddedOffRampEdge 186407690 413998000#1 380585329 683079387#0 683079387#1"/>
  <flow id="route_2_flow" type="car" route="route_2" begin="0" end="30" number="24" departPos="random" arrivalPos="random" departSpeed="max" departLane="best"/>
  <route id="route_3" edges="1328664744#0 134193294#0"/>
  <flow id="route_3_flow" type="car" route="route_3" begin="0" end="30" number="199" departPos="random" arrivalPos="random" departSpeed="max" departLane="best"/>
  <route id="route_4" edges="1253222187#0 1310781056-AddedOnRampEdge 1310781056"/>
  <flow id="route_4_flow" type="car" route="route_4" begin="0" end="30" number="124" departPos="random" arrivalPos="random" departSpeed="max" departLane="best"/>
  <route id="route_5" edges="380351865#0 380351865#0.21 1318893695#0"/>
  <flow id="route_5_flow" type="car" route="route_5" begin="0" end="30" number="54" departPos="random" arrivalPos="random" departSpeed="max" departLane="best"/>
</routes>
