<?xml version='1.0' encoding='UTF-8'?>
<routes>
  <vType id="car" accel="1.0" decel="4.5" length="5" maxSpeed="16.6" sigma="0.5"/>
  <route id="route_0" edges="1341093415#0 409155823"/>
  <flow id="route_0_flow" type="car" route="route_0" begin="0" end="30" number="141" departPos="random" arrivalPos="random" departSpeed="max" departLane="best"/>
  <route id="route_1" edges="-138000461 50899257 189240000#0-AddedOnRampEdge"/>
  <flow id="route_1_flow" type="car" route="route_1" begin="0" end="30" number="1" departPos="random" arrivalPos="random" departSpeed="max" departLane="best"/>
  <route id="route_2" edges="791826085 134193294#0"/>
  <flow id="route_2_flow" type="car" route="route_2" begin="0" end="30" number="221" departPos="random" arrivalPos="random" departSpeed="max" departLane="best"/>
  <route id="route_3" edges="134194079#0 1328664744#0"/>
  <flow id="route_3_flow" type="car" route="route_3" begin="0" end="30" number="158" departPos="random" arrivalPos="random" departSpeed="max" departLane="best"/>
  <route id="route_4" edges="683079388#0 683079388#1 683079389 119476960 119476978#0 119476978#1 380585336"/>
  <flow id="route_4_flow" type="car" route="route_4" begin="0" end="30" number="89" departPos="random" arrivalPos="random" departSpeed="max" departLane="best"/>
  <route id="route_5" edges="380351865#0 380351865#0.21 1318793173#0"/>
  <flow id="route_5_flow" type="car" route="route_5" begin="0" end="30" number="184" departPos="random" arrivalPos="random" departSpeed="max" departLane="best"/>
</routes>
