<?xml version='1.0' encoding='UTF-8'?>
<routes>
  <vType id="car" accel="1.0" decel="4.5" length="5" maxSpeed="16.6" sigma="0.5"/>
  <route id="route_0" edges="809719540#0 -809772643#1"/>
  <flow id="route_0_flow" type="car" route="route_0" begin="0" end="30" number="66" departPos="random" arrivalPos="random" departSpeed="max" departLane="best"/>
  <route id="route_1" edges="137415945#0 137415945#0.16 137406408#0"/>
  <flow id="route_1_flow" type="car" route="route_1" begin="0" end="30" number="1" departPos="random" arrivalPos="random" departSpeed="max" departLane="best"/>
  <route id="route_2" edges="31861355#0 714011134#0"/>
  <flow id="route_2_flow" type="car" route="route_2" begin="0" end="30" number="1" departPos="random" arrivalPos="random" departSpeed="max" departLane="best"/>
</routes>
