<?xml version='1.0' encoding='UTF-8'?>
<routes>
  <vType id="car" accel="1.0" decel="4.5" length="5" maxSpeed="16.6" sigma="0.5"/>
  <route id="route_0" edges="-138002002#2 -138002006#3"/>
  <flow id="route_0_flow" type="car" route="route_0" begin="0" end="30" number="30" departPos="random" arrivalPos="random" departSpeed="max" departLane="best"/>
  <route id="route_1" edges="1328664748#0 177211987#1"/>
  <flow id="route_1_flow" type="car" route="route_1" begin="0" end="30" number="147" departPos="random" arrivalPos="random" departSpeed="max" departLane="best"/>
  <route id="route_2" edges="380585338#0 380593307#0"/>
  <flow id="route_2_flow" type="car" route="route_2" begin="0" end="30" number="300" departPos="random" arrivalPos="random" departSpeed="max" departLane="best"/>
  <route id="route_3" edges="137415945#0 137415945#0.16 379698350#0"/>
  <flow id="route_3_flow" type="car" route="route_3" begin="0" end="30" number="162" departPos="random" arrivalPos="random" departSpeed="max" departLane="best"/>
  <route id="route_4" edges="409155823 1091883842"/>
  <flow id="route_4_flow" type="car" route="route_4" begin="0" end="30" number="202" departPos="random" arrivalPos="random" departSpeed="max" departLane="best"/>
  <route id="route_5" edges="1252820505#0 137406408#0"/>
  <flow id="route_5_flow" type="car" route="route_5" begin="0" end="30" number="226" departPos="random" arrivalPos="random" departSpeed="max" departLane="best"/>
</routes>
