<?xml version='1.0' encoding='UTF-8'?>
<routes>
  <vType id="car" accel="1.0" decel="4.5" length="5" maxSpeed="16.6" sigma="0.5"/>
  <route id="route_0" edges="1318793176#1 1318793176#1.11 1318793173#0"/>
  <flow id="route_0_flow" type="car" route="route_0" begin="0" end="30" number="138" departPos="random" arrivalPos="random" departSpeed="max" departLane="best"/>
  <route id="route_1" edges="-138002006#3 -422986370#2"/>
  <flow id="route_1_flow" type="car" route="route_1" begin="0" end="30" number="53" departPos="random" arrivalPos="random" departSpeed="max" departLane="best"/>
  <route id="route_2" edges="1252820503#0 291974733#0"/>
  <flow id="route_2_flow" type="car" route="route_2" begin="0" end="30" number="220" departPos="random" arrivalPos="random" departSpeed="max" departLane="best"/>
  <route id="route_3" edges="1369578052#0 133342692#0"/>
  <flow id="route_3_flow" type="car" route="route_3" begin="0" end="30" number="48" departPos="random" arrivalPos="random" departSpeed="max" departLane="best"/>
  <route id="route_4" edges="688883939#0 1310781105#0 186410975#0"/>
  <flow id="route_4_flow" type="car" route="route_4" begin="0" end="30" number="162" departPos="random" arrivalPos="random" departSpeed="max" departLane="best"/>
  <route id="route_5" edges="133000078#0 1235147073 1235147073.116"/>
  <flow id="route_5_flow" type="car" route="route_5" begin="0" end="30" number="141" departPos="random" arrivalPos="random" departSpeed="max" departLane="best"/>
</routes>
