<?xml version='1.0' encoding='UTF-8'?>
<routes>
  <vType id="car" accel="1.0" decel="4.5" length="5" maxSpeed="16.6" sigma="0.5"/>
  <route id="route_0" edges="430416184 1091883842"/>
  <flow id="route_0_flow" type="car" route="route_0" begin="0" end="30" number="100" departPos="random" arrivalPos="random" departSpeed="max" departLane="best"/>
  <route id="route_1" edges="1318793173#0 133126013#0 189835257"/>
  <flow id="route_1_flow" type="car" route="route_1" begin="0" end="30" number="278" departPos="random" arrivalPos="random" departSpeed="max" departLane="best"/>
  <route id="route_2" edges="1252820503#0 291974733#0"/>
  <flow id="route_2_flow" type="car" route="route_2" begin="0" end="30" number="256" departPos="random" arrivalPos="random" departSpeed="max" departLane="best"/>
  <route id="route_3" edges="1235147073.116 133126026#0 -430406005#1"/>
  <flow id="route_3_flow" type="car" route="route_3" begin="0" end="30" number="191" departPos="random" arrivalPos="random" departSpeed="max" departLane="best"/>
</routes>
