<?xml version='1.0' encoding='UTF-8'?>
<routes>
  <vType id="car" accel="1.0" decel="4.5" length="5" maxSpeed="16.6" sigma="0.5"/>
  <route id="route_0" edges="683079388#0 683079388#1 683079389 119476960 413997998 380585339#0 380585338#0"/>
  <flow id="route_0_flow" type="car" route="route_0" begin="0" end="30" number="298" departPos="random" arrivalPos="random" departSpeed="max" departLane="best"/>
  <route id="route_1" edges="423956929 186407685"/>
  <flow id="route_1_flow" type="car" route="route_1" begin="0" end="30" number="84" departPos="random" arrivalPos="random" departSpeed="max" departLane="best"/>
  <route id="route_2" edges="133000063 133000074#0 424419114 466039992 186409193"/>
  <flow id="route_2_flow" type="car" route="route_2" begin="0" end="30" number="1" departPos="random" arrivalPos="random" departSpeed="max" departLane="best"/>
</routes>
