<?xml version='1.0' encoding='UTF-8'?>
<routes>
  <vType id="car" accel="1.0" decel="4.5" length="5" maxSpeed="16.6" sigma="0.5"/>
  <route id="route_0" edges="1252820505#0 137406408#0"/>
  <flow id="route_0_flow" type="car" route="route_0" begin="0" end="30" number="300" departPos="random" arrivalPos="random" departSpeed="max" departLane="best"/>
  <route id="route_1" edges="380344611#0 133000063"/>
  <flow id="route_1_flow" type="car" route="route_1" begin="0" end="30" number="30" departPos="random" arrivalPos="random" departSpeed="max" departLane="best"/>
  <route id="route_2" edges="134194079#0 1328664744#0"/>
  <flow id="route_2_flow" type="car" route="route_2" begin="0" end="30" number="300" departPos="random" arrivalPos="random" departSpeed="max" departLane="best"/>
  <route id="route_3" edges="380344611#0 380593307#0"/>
  <flow id="route_3_flow" type="car" route="route_3" begin="0" end="30" number="300" departPos="random" arrivalPos="random" departSpeed="max" departLane="best"/>
</routes>
