<?xml version='1.0' encoding='UTF-8'?>
<routes>
  <vType id="car" accel="1.0" decel="4.5" length="5" maxSpeed="16.6" sigma="0.5"/>
  <route id="route_0" edges="380351865#0 380351865#0.21 1318893695#0"/>
  <flow id="route_0_flow" type="car" route="route_0" begin="0" end="30" number="104" departPos="random" arrivalPos="random" departSpeed="max" departLane="best"/>
  <route id="route_1" edges="430416184 186407685"/>
  <flow id="route_1_flow" type="car" route="route_1" begin="0" end="30" number="105" departPos="random" arrivalPos="random" departSpeed="max" departLane="best"/>
</routes>
