<?xml version='1.0' encoding='utf-8'?>
<routes><vTypeDistribution id="mixed_flow1"><vType id="car_flow1" accel="1.0" decel="4.5" sigma="0.5" length="5" maxSpeed="2.66" guiShape="passenger" probability="0.9" /><vType id="bus_flow1" accel="0.8" decel="4.0" sigma="0.5" length="12" maxSpeed="2.3" guiShape="bus" probability="0.09999999999999998" /></vTypeDistribution><flow id="flow1" type="mixed_flow1" begin="0" end="96.0" number="190" from="137415945#0" to="1342054204" departPos="random" arrivalPos="random" /><vTypeDistribution id="mixed_flow2"><vType id="car_flow2" accel="1.0" decel="4.5" sigma="0.5" length="5" maxSpeed="4.5" guiShape="passenger" probability="0.9" /><vType id="bus_flow2" accel="0.8" decel="4.0" sigma="0.5" length="12" maxSpeed="3.89" guiShape="bus" probability="0.09999999999999998" /></vTypeDistribution><flow id="flow2" type="mixed_flow2" begin="0" end="53.0" number="105" from="291974733#0" to="379698350#0" departPos="random" arrivalPos="random" /><vTypeDistribution id="mixed_flow3"><vType id="car_flow3" accel="1.0" decel="4.5" sigma="0.5" length="5" maxSpeed="4.43" guiShape="passenger" probability="0.9" /><vType id="bus_flow3" accel="0.8" decel="4.0" sigma="0.5" length="12" maxSpeed="3.83" guiShape="bus" probability="0.09999999999999998" /></vTypeDistribution><flow id="flow3" type="mixed_flow3" begin="0" end="74.0" number="145" from="137415945#0" to="379698350#0" departPos="random" arrivalPos="random" /><vTypeDistribution id="mixed_flow4"><vType id="car_flow4" accel="1.0" decel="4.5" sigma="0.5" length="5" maxSpeed="3.96" guiShape="passenger" probability="0.9" /><vType id="bus_flow4" accel="0.8" decel="4.0" sigma="0.5" length="12" maxSpeed="3.42" guiShape="bus" probability="0.09999999999999998" /></vTypeDistribution><flow id="flow4" type="mixed_flow4" begin="0" end="58.0" number="115" from="1252820505#0" to="379698350#0" departPos="random" arrivalPos="random" /><vTypeDistribution id="mixed_flow5"><vType id="car_flow5" accel="1.0" decel="4.5" sigma="0.5" length="5" maxSpeed="3.89" guiShape="passenger" probability="0.9" /><vType id="bus_flow5" accel="0.8" decel="4.0" sigma="0.5" length="12" maxSpeed="3.36" guiShape="bus" probability="0.09999999999999998" /></vTypeDistribution><flow id="flow5" type="mixed_flow5" begin="0" end="65.0" number="130" from="1252820505#0" to="1235147073.116" departPos="random" arrivalPos="random" /><vTypeDistribution id="mixed_flow6"><vType id="car_flow6" accel="1.0" decel="4.5" sigma="0.5" length="5" maxSpeed="3.3" guiShape="passenger" probability="0.9" /><vType id="bus_flow6" accel="0.8" decel="4.0" sigma="0.5" length="12" maxSpeed="2.85" guiShape="bus" probability="0.09999999999999998" /></vTypeDistribution><flow id="flow6" type="mixed_flow6" begin="0" end="71.0" number="140" from="1252820505#0" to="137406408#0" departPos="random" arrivalPos="random" /><vTypeDistribution id="mixed_flow7"><vType id="car_flow7" accel="1.0" decel="4.5" sigma="0.5" length="5" maxSpeed="2.32" guiShape="passenger" probability="0.9" /><vType id="bus_flow7" accel="0.8" decel="4.0" sigma="0.5" length="12" maxSpeed="2.0" guiShape="bus" probability="0.09999999999999998" /></vTypeDistribution><flow id="flow7" type="mixed_flow7" begin="0" end="118.0" number="235" from="133000078#0" to="1342054204" departPos="random" arrivalPos="random" /><vTypeDistribution id="mixed_flow8"><vType id="car_flow8" accel="1.0" decel="4.5" sigma="0.5" length="5" maxSpeed="2.2" guiShape="passenger" probability="0.9" /><vType id="bus_flow8" accel="0.8" decel="4.0" sigma="0.5" length="12" maxSpeed="1.9" guiShape="bus" probability="0.09999999999999998" /></vTypeDistribution><flow id="flow8" type="mixed_flow8" begin="0" end="68.0" number="135" from="291974733#0" to="1342054204" departPos="random" arrivalPos="random" /><vTypeDistribution id="mixed_flow9"><vType id="car_flow9" accel="1.0" decel="4.5" sigma="0.5" length="5" maxSpeed="5.6" guiShape="passenger" probability="0.9" /><vType id="bus_flow9" accel="0.8" decel="4.0" sigma="0.5" length="12" maxSpeed="4.84" guiShape="bus" probability="0.09999999999999998" /></vTypeDistribution><flow id="flow9" type="mixed_flow9" begin="0" end="44.0" number="85" from="133000078#0" to="1235147073.116" departPos="random" arrivalPos="random" /><vTypeDistribution id="mixed_flow10"><vType id="car_flow10" accel="1.0" decel="4.5" sigma="0.5" length="5" maxSpeed="3.5" guiShape="passenger" probability="0.9" /><vType id="bus_flow10" accel="0.8" decel="4.0" sigma="0.5" length="12" maxSpeed="3.02" guiShape="bus" probability="0.09999999999999998" /></vTypeDistribution><flow id="flow10" type="mixed_flow10" begin="0" end="71.0" number="140" from="133000078#0" to="137406408#0" departPos="random" arrivalPos="random" /><vTypeDistribution id="mixed_flow11"><vType id="car_flow11" accel="1.0" decel="4.5" sigma="0.5" length="5" maxSpeed="2.58" guiShape="passenger" probability="0.9" /><vType id="bus_flow11" accel="0.8" decel="4.0" sigma="0.5" length="12" maxSpeed="2.23" guiShape="bus" probability="0.09999999999999998" /></vTypeDistribution><flow id="flow11" type="mixed_flow11" begin="0" end="84.0" number="165" from="137415945#0" to="137406408#0" departPos="random" arrivalPos="random" /></routes>