<?xml version='1.0' encoding='utf-8'?>
<routes><vTypeDistribution id="mixed_duration_20250327_1730_flow1"><vType id="car_duration_20250327_1730_flow1" accel="1.0" decel="4.5" sigma="0.5" length="5" maxSpeed="1.1" guiShape="passenger" probability="0.9" /><vType id="bus_duration_20250327_1730_flow1" accel="0.8" decel="4.0" sigma="0.5" length="12" maxSpeed="0.95" guiShape="bus" probability="0.09999999999999998" /></vTypeDistribution><flow id="duration_20250327_1730_flow1" type="mixed_duration_20250327_1730_flow1" begin="0" end="290.0" number="82" from="1318793176#1" to="133126031#0" departPos="random" arrivalPos="random" /><vTypeDistribution id="mixed_duration_20250327_1730_flow2"><vType id="car_duration_20250327_1730_flow2" accel="1.0" decel="4.5" sigma="0.5" length="5" maxSpeed="1.66" guiShape="passenger" probability="0.9" /><vType id="bus_duration_20250327_1730_flow2" accel="0.8" decel="4.0" sigma="0.5" length="12" maxSpeed="1.43" guiShape="bus" probability="0.09999999999999998" /></vTypeDistribution><flow id="duration_20250327_1730_flow2" type="mixed_duration_20250327_1730_flow2" begin="0" end="128.0" number="36" from="1318793176#1" to="1318793173#0" departPos="random" arrivalPos="random" /><vTypeDistribution id="mixed_duration_20250327_1730_flow3"><vType id="car_duration_20250327_1730_flow3" accel="1.0" decel="4.5" sigma="0.5" length="5" maxSpeed="2.98" guiShape="passenger" probability="0.9" /><vType id="bus_duration_20250327_1730_flow3" accel="0.8" decel="4.0" sigma="0.5" length="12" maxSpeed="2.57" guiShape="bus" probability="0.09999999999999998" /></vTypeDistribution><flow id="duration_20250327_1730_flow3" type="mixed_duration_20250327_1730_flow3" begin="0" end="55.0" number="15" from="1318793173#0" to="189835257" departPos="random" arrivalPos="random" /><vTypeDistribution id="mixed_duration_20250327_1730_flow4"><vType id="car_duration_20250327_1730_flow4" accel="1.0" decel="4.5" sigma="0.5" length="5" maxSpeed="2.87" guiShape="passenger" probability="0.9" /><vType id="bus_duration_20250327_1730_flow4" accel="0.8" decel="4.0" sigma="0.5" length="12" maxSpeed="2.48" guiShape="bus" probability="0.09999999999999998" /></vTypeDistribution><flow id="duration_20250327_1730_flow4" type="mixed_duration_20250327_1730_flow4" begin="0" end="51.0" number="14" from="1318793173#0" to="291974733#0" departPos="random" arrivalPos="random" /><vTypeDistribution id="mixed_duration_20250327_1730_flow5"><vType id="car_duration_20250327_1730_flow5" accel="1.0" decel="4.5" sigma="0.5" length="5" maxSpeed="4.5" guiShape="passenger" probability="0.9" /><vType id="bus_duration_20250327_1730_flow5" accel="0.8" decel="4.0" sigma="0.5" length="12" maxSpeed="3.89" guiShape="bus" probability="0.09999999999999998" /></vTypeDistribution><flow id="duration_20250327_1730_flow5" type="mixed_duration_20250327_1730_flow5" begin="0" end="53.0" number="15" from="291974733#0" to="379698350#0" departPos="random" arrivalPos="random" /><vTypeDistribution id="mixed_duration_20250327_1730_flow6"><vType id="car_duration_20250327_1730_flow6" accel="1.0" decel="4.5" sigma="0.5" length="5" maxSpeed="2.2" guiShape="passenger" probability="0.9" /><vType id="bus_duration_20250327_1730_flow6" accel="0.8" decel="4.0" sigma="0.5" length="12" maxSpeed="1.9" guiShape="bus" probability="0.09999999999999998" /></vTypeDistribution><flow id="duration_20250327_1730_flow6" type="mixed_duration_20250327_1730_flow6" begin="0" end="68.0" number="19" from="291974733#0" to="1342054204" departPos="random" arrivalPos="random" /><vTypeDistribution id="mixed_duration_20250327_1730_flow7"><vType id="car_duration_20250327_1730_flow7" accel="1.0" decel="4.5" sigma="0.5" length="5" maxSpeed="3.96" guiShape="passenger" probability="0.9" /><vType id="bus_duration_20250327_1730_flow7" accel="0.8" decel="4.0" sigma="0.5" length="12" maxSpeed="3.42" guiShape="bus" probability="0.09999999999999998" /></vTypeDistribution><flow id="duration_20250327_1730_flow7" type="mixed_duration_20250327_1730_flow7" begin="0" end="58.0" number="16" from="1252820505#0" to="379698350#0" departPos="random" arrivalPos="random" /><vTypeDistribution id="mixed_duration_20250327_1730_flow8"><vType id="car_duration_20250327_1730_flow8" accel="1.0" decel="4.5" sigma="0.5" length="5" maxSpeed="3.5" guiShape="passenger" probability="0.9" /><vType id="bus_duration_20250327_1730_flow8" accel="0.8" decel="4.0" sigma="0.5" length="12" maxSpeed="3.02" guiShape="bus" probability="0.09999999999999998" /></vTypeDistribution><flow id="duration_20250327_1730_flow8" type="mixed_duration_20250327_1730_flow8" begin="0" end="71.0" number="20" from="133000078#0" to="137406408#0" departPos="random" arrivalPos="random" /><vTypeDistribution id="mixed_duration_20250327_1730_flow9"><vType id="car_duration_20250327_1730_flow9" accel="1.0" decel="4.5" sigma="0.5" length="5" maxSpeed="5.6" guiShape="passenger" probability="0.9" /><vType id="bus_duration_20250327_1730_flow9" accel="0.8" decel="4.0" sigma="0.5" length="12" maxSpeed="4.84" guiShape="bus" probability="0.09999999999999998" /></vTypeDistribution><flow id="duration_20250327_1730_flow9" type="mixed_duration_20250327_1730_flow9" begin="0" end="44.0" number="12" from="133000078#0" to="1235147073.116" departPos="random" arrivalPos="random" /><vTypeDistribution id="mixed_duration_20250327_1730_flow10"><vType id="car_duration_20250327_1730_flow10" accel="1.0" decel="4.5" sigma="0.5" length="5" maxSpeed="4.32" guiShape="passenger" probability="0.9" /><vType id="bus_duration_20250327_1730_flow10" accel="0.8" decel="4.0" sigma="0.5" length="12" maxSpeed="3.73" guiShape="bus" probability="0.09999999999999998" /></vTypeDistribution><flow id="duration_20250327_1730_flow10" type="mixed_duration_20250327_1730_flow10" begin="0" end="53.0" number="15" from="1318793173#0" to="1254771874#0" departPos="random" arrivalPos="random" /><vTypeDistribution id="mixed_duration_20250327_1730_flow11"><vType id="car_duration_20250327_1730_flow11" accel="1.0" decel="4.5" sigma="0.5" length="5" maxSpeed="3.5" guiShape="passenger" probability="0.9" /><vType id="bus_duration_20250327_1730_flow11" accel="0.8" decel="4.0" sigma="0.5" length="12" maxSpeed="3.02" guiShape="bus" probability="0.09999999999999998" /></vTypeDistribution><flow id="duration_20250327_1730_flow11" type="mixed_duration_20250327_1730_flow11" begin="0" end="72.0" number="20" from="291974733#0" to="1235147073.116" departPos="random" arrivalPos="random" /><vTypeDistribution id="mixed_duration_20250327_1730_flow12"><vType id="car_duration_20250327_1730_flow12" accel="1.0" decel="4.5" sigma="0.5" length="5" maxSpeed="3.89" guiShape="passenger" probability="0.9" /><vType id="bus_duration_20250327_1730_flow12" accel="0.8" decel="4.0" sigma="0.5" length="12" maxSpeed="3.36" guiShape="bus" probability="0.09999999999999998" /></vTypeDistribution><flow id="duration_20250327_1730_flow12" type="mixed_duration_20250327_1730_flow12" begin="0" end="65.0" number="18" from="1252820505#0" to="1235147073.116" departPos="random" arrivalPos="random" /><vTypeDistribution id="mixed_duration_20250327_1730_flow13"><vType id="car_duration_20250327_1730_flow13" accel="1.0" decel="4.5" sigma="0.5" length="5" maxSpeed="3.3" guiShape="passenger" probability="0.9" /><vType id="bus_duration_20250327_1730_flow13" accel="0.8" decel="4.0" sigma="0.5" length="12" maxSpeed="2.85" guiShape="bus" probability="0.09999999999999998" /></vTypeDistribution><flow id="duration_20250327_1730_flow13" type="mixed_duration_20250327_1730_flow13" begin="0" end="71.0" number="20" from="1252820505#0" to="137406408#0" departPos="random" arrivalPos="random" /><vTypeDistribution id="mixed_duration_20250327_1730_flow14"><vType id="car_duration_20250327_1730_flow14" accel="1.0" decel="4.5" sigma="0.5" length="5" maxSpeed="2.32" guiShape="passenger" probability="0.9" /><vType id="bus_duration_20250327_1730_flow14" accel="0.8" decel="4.0" sigma="0.5" length="12" maxSpeed="2.0" guiShape="bus" probability="0.09999999999999998" /></vTypeDistribution><flow id="duration_20250327_1730_flow14" type="mixed_duration_20250327_1730_flow14" begin="0" end="118.0" number="33" from="133000078#0" to="1342054204" departPos="random" arrivalPos="random" /><vTypeDistribution id="mixed_duration_20250327_1730_flow15"><vType id="car_duration_20250327_1730_flow15" accel="1.0" decel="4.5" sigma="0.5" length="5" maxSpeed="2.73" guiShape="passenger" probability="0.9" /><vType id="bus_duration_20250327_1730_flow15" accel="0.8" decel="4.0" sigma="0.5" length="12" maxSpeed="2.36" guiShape="bus" probability="0.09999999999999998" /></vTypeDistribution><flow id="duration_20250327_1730_flow15" type="mixed_duration_20250327_1730_flow15" begin="0" end="64.0" number="18" from="1252820503#0" to="291974733#0" departPos="random" arrivalPos="random" /><vTypeDistribution id="mixed_duration_20250327_1730_flow16"><vType id="car_duration_20250327_1730_flow16" accel="1.0" decel="4.5" sigma="0.5" length="5" maxSpeed="4.88" guiShape="passenger" probability="0.9" /><vType id="bus_duration_20250327_1730_flow16" accel="0.8" decel="4.0" sigma="0.5" length="12" maxSpeed="4.21" guiShape="bus" probability="0.09999999999999998" /></vTypeDistribution><flow id="duration_20250327_1730_flow16" type="mixed_duration_20250327_1730_flow16" begin="0" end="53.0" number="15" from="1252820503#0" to="1254771874#0" departPos="random" arrivalPos="random" /><vTypeDistribution id="mixed_duration_20250327_1730_flow17"><vType id="car_duration_20250327_1730_flow17" accel="1.0" decel="4.5" sigma="0.5" length="5" maxSpeed="3.8" guiShape="passenger" probability="0.9" /><vType id="bus_duration_20250327_1730_flow17" accel="0.8" decel="4.0" sigma="0.5" length="12" maxSpeed="3.29" guiShape="bus" probability="0.09999999999999998" /></vTypeDistribution><flow id="duration_20250327_1730_flow17" type="mixed_duration_20250327_1730_flow17" begin="0" end="48.0" number="13" from="1252820503#0" to="133126040#0" departPos="random" arrivalPos="random" /><vTypeDistribution id="mixed_duration_20250327_1730_flow18"><vType id="car_duration_20250327_1730_flow18" accel="1.0" decel="4.5" sigma="0.5" length="5" maxSpeed="3.4" guiShape="passenger" probability="0.9" /><vType id="bus_duration_20250327_1730_flow18" accel="0.8" decel="4.0" sigma="0.5" length="12" maxSpeed="2.94" guiShape="bus" probability="0.09999999999999998" /></vTypeDistribution><flow id="duration_20250327_1730_flow18" type="mixed_duration_20250327_1730_flow18" begin="0" end="42.0" number="12" from="137406408#0" to="133126040#0" departPos="random" arrivalPos="random" /><vTypeDistribution id="mixed_duration_20250327_1730_flow19"><vType id="car_duration_20250327_1730_flow19" accel="1.0" decel="4.5" sigma="0.5" length="5" maxSpeed="3.89" guiShape="passenger" probability="0.9" /><vType id="bus_duration_20250327_1730_flow19" accel="0.8" decel="4.0" sigma="0.5" length="12" maxSpeed="3.36" guiShape="bus" probability="0.09999999999999998" /></vTypeDistribution><flow id="duration_20250327_1730_flow19" type="mixed_duration_20250327_1730_flow19" begin="0" end="56.0" number="16" from="137406408#0" to="1254771874#0" departPos="random" arrivalPos="random" /><vTypeDistribution id="mixed_duration_20250327_1730_flow20"><vType id="car_duration_20250327_1730_flow20" accel="1.0" decel="4.5" sigma="0.5" length="5" maxSpeed="6.83" guiShape="passenger" probability="0.9" /><vType id="bus_duration_20250327_1730_flow20" accel="0.8" decel="4.0" sigma="0.5" length="12" maxSpeed="5.9" guiShape="bus" probability="0.09999999999999998" /></vTypeDistribution><flow id="duration_20250327_1730_flow20" type="mixed_duration_20250327_1730_flow20" begin="0" end="29.0" number="8" from="133126040#0" to="1318893695#0" departPos="random" arrivalPos="random" /><vTypeDistribution id="mixed_duration_20250327_1730_flow21"><vType id="car_duration_20250327_1730_flow21" accel="1.0" decel="4.5" sigma="0.5" length="5" maxSpeed="1.2" guiShape="passenger" probability="0.9" /><vType id="bus_duration_20250327_1730_flow21" accel="0.8" decel="4.0" sigma="0.5" length="12" maxSpeed="1.03" guiShape="bus" probability="0.09999999999999998" /></vTypeDistribution><flow id="duration_20250327_1730_flow21" type="mixed_duration_20250327_1730_flow21" begin="0" end="218.0" number="62" from="133126040#0" to="133126031#0" departPos="random" arrivalPos="random" /><vTypeDistribution id="mixed_duration_20250327_1730_flow22"><vType id="car_duration_20250327_1730_flow22" accel="1.0" decel="4.5" sigma="0.5" length="5" maxSpeed="8.66" guiShape="passenger" probability="0.9" /><vType id="bus_duration_20250327_1730_flow22" accel="0.8" decel="4.0" sigma="0.5" length="12" maxSpeed="7.48" guiShape="bus" probability="0.09999999999999998" /></vTypeDistribution><flow id="duration_20250327_1730_flow22" type="mixed_duration_20250327_1730_flow22" begin="0" end="31.0" number="8" from="1318893695#0" to="133131666#1" departPos="random" arrivalPos="random" /><vTypeDistribution id="mixed_duration_20250327_1730_flow23"><vType id="car_duration_20250327_1730_flow23" accel="1.0" decel="4.5" sigma="0.5" length="5" maxSpeed="4.28" guiShape="passenger" probability="0.9" /><vType id="bus_duration_20250327_1730_flow23" accel="0.8" decel="4.0" sigma="0.5" length="12" maxSpeed="3.7" guiShape="bus" probability="0.09999999999999998" /></vTypeDistribution><flow id="duration_20250327_1730_flow23" type="mixed_duration_20250327_1730_flow23" begin="0" end="64.0" number="18" from="380585337#0" to="1318793176#1" departPos="random" arrivalPos="random" /><vTypeDistribution id="mixed_duration_20250327_1730_flow24"><vType id="car_duration_20250327_1730_flow24" accel="1.0" decel="4.5" sigma="0.5" length="5" maxSpeed="2.66" guiShape="passenger" probability="0.9" /><vType id="bus_duration_20250327_1730_flow24" accel="0.8" decel="4.0" sigma="0.5" length="12" maxSpeed="2.3" guiShape="bus" probability="0.09999999999999998" /></vTypeDistribution><flow id="duration_20250327_1730_flow24" type="mixed_duration_20250327_1730_flow24" begin="0" end="96.0" number="27" from="137415945#0" to="1342054204" departPos="random" arrivalPos="random" /><vTypeDistribution id="mixed_duration_20250327_1730_flow25"><vType id="car_duration_20250327_1730_flow25" accel="1.0" decel="4.5" sigma="0.5" length="5" maxSpeed="4.43" guiShape="passenger" probability="0.9" /><vType id="bus_duration_20250327_1730_flow25" accel="0.8" decel="4.0" sigma="0.5" length="12" maxSpeed="3.83" guiShape="bus" probability="0.09999999999999998" /></vTypeDistribution><flow id="duration_20250327_1730_flow25" type="mixed_duration_20250327_1730_flow25" begin="0" end="74.0" number="21" from="137415945#0" to="379698350#0" departPos="random" arrivalPos="random" /><vTypeDistribution id="mixed_duration_20250327_1730_flow26"><vType id="car_duration_20250327_1730_flow26" accel="1.0" decel="4.5" sigma="0.5" length="5" maxSpeed="2.58" guiShape="passenger" probability="0.9" /><vType id="bus_duration_20250327_1730_flow26" accel="0.8" decel="4.0" sigma="0.5" length="12" maxSpeed="2.23" guiShape="bus" probability="0.09999999999999998" /></vTypeDistribution><flow id="duration_20250327_1730_flow26" type="mixed_duration_20250327_1730_flow26" begin="0" end="84.0" number="24" from="137415945#0" to="137406408#0" departPos="random" arrivalPos="random" /><vTypeDistribution id="mixed_duration_20250327_1730_flow27"><vType id="car_duration_20250327_1730_flow27" accel="1.0" decel="4.5" sigma="0.5" length="5" maxSpeed="5.25" guiShape="passenger" probability="0.9" /><vType id="bus_duration_20250327_1730_flow27" accel="0.8" decel="4.0" sigma="0.5" length="12" maxSpeed="4.53" guiShape="bus" probability="0.09999999999999998" /></vTypeDistribution><flow id="duration_20250327_1730_flow27" type="mixed_duration_20250327_1730_flow27" begin="0" end="57.0" number="16" from="1254771874#0" to="1341093415#0" departPos="random" arrivalPos="random" /><vTypeDistribution id="mixed_duration_20250327_1730_flow28"><vType id="car_duration_20250327_1730_flow28" accel="1.0" decel="4.5" sigma="0.5" length="5" maxSpeed="4.71" guiShape="passenger" probability="0.9" /><vType id="bus_duration_20250327_1730_flow28" accel="0.8" decel="4.0" sigma="0.5" length="12" maxSpeed="4.07" guiShape="bus" probability="0.09999999999999998" /></vTypeDistribution><flow id="duration_20250327_1730_flow28" type="mixed_duration_20250327_1730_flow28" begin="0" end="75.0" number="21" from="1254771874#0" to="-422986370#2" departPos="random" arrivalPos="random" /><vTypeDistribution id="mixed_duration_20250327_1730_flow29"><vType id="car_duration_20250327_1730_flow29" accel="1.0" decel="4.5" sigma="0.5" length="5" maxSpeed="4.3" guiShape="passenger" probability="0.9" /><vType id="bus_duration_20250327_1730_flow29" accel="0.8" decel="4.0" sigma="0.5" length="12" maxSpeed="3.72" guiShape="bus" probability="0.09999999999999998" /></vTypeDistribution><flow id="duration_20250327_1730_flow29" type="mixed_duration_20250327_1730_flow29" begin="0" end="57.0" number="16" from="1254771874#0" to="138002006#0" departPos="random" arrivalPos="random" /><vTypeDistribution id="mixed_duration_20250327_1730_flow30"><vType id="car_duration_20250327_1730_flow30" accel="1.0" decel="4.5" sigma="0.5" length="5" maxSpeed="2.86" guiShape="passenger" probability="0.9" /><vType id="bus_duration_20250327_1730_flow30" accel="0.8" decel="4.0" sigma="0.5" length="12" maxSpeed="2.47" guiShape="bus" probability="0.09999999999999998" /></vTypeDistribution><flow id="duration_20250327_1730_flow30" type="mixed_duration_20250327_1730_flow30" begin="0" end="105.0" number="30" from="-422986370#2" to="-430406005#1" departPos="random" arrivalPos="random" /><vTypeDistribution id="mixed_duration_20250327_1730_flow31"><vType id="car_duration_20250327_1730_flow31" accel="1.0" decel="4.5" sigma="0.5" length="5" maxSpeed="2.6" guiShape="passenger" probability="0.9" /><vType id="bus_duration_20250327_1730_flow31" accel="0.8" decel="4.0" sigma="0.5" length="12" maxSpeed="2.25" guiShape="bus" probability="0.09999999999999998" /></vTypeDistribution><flow id="duration_20250327_1730_flow31" type="mixed_duration_20250327_1730_flow31" begin="0" end="145.0" number="41" from="-422986370#2" to="137415945#0" departPos="random" arrivalPos="random" /><vTypeDistribution id="mixed_duration_20250327_1730_flow32"><vType id="car_duration_20250327_1730_flow32" accel="1.0" decel="4.5" sigma="0.5" length="5" maxSpeed="3.05" guiShape="passenger" probability="0.9" /><vType id="bus_duration_20250327_1730_flow32" accel="0.8" decel="4.0" sigma="0.5" length="12" maxSpeed="2.63" guiShape="bus" probability="0.09999999999999998" /></vTypeDistribution><flow id="duration_20250327_1730_flow32" type="mixed_duration_20250327_1730_flow32" begin="0" end="97.0" number="27" from="1235147073.116" to="133126030#0" departPos="random" arrivalPos="random" /><vTypeDistribution id="mixed_duration_20250327_1730_flow33"><vType id="car_duration_20250327_1730_flow33" accel="1.0" decel="4.5" sigma="0.5" length="5" maxSpeed="2.82" guiShape="passenger" probability="0.9" /><vType id="bus_duration_20250327_1730_flow33" accel="0.8" decel="4.0" sigma="0.5" length="12" maxSpeed="2.44" guiShape="bus" probability="0.09999999999999998" /></vTypeDistribution><flow id="duration_20250327_1730_flow33" type="mixed_duration_20250327_1730_flow33" begin="0" end="101.0" number="28" from="1235147073.116" to="-430406005#1" departPos="random" arrivalPos="random" /><vTypeDistribution id="mixed_duration_20250327_1730_flow34"><vType id="car_duration_20250327_1730_flow34" accel="1.0" decel="4.5" sigma="0.5" length="5" maxSpeed="2.85" guiShape="passenger" probability="0.9" /><vType id="bus_duration_20250327_1730_flow34" accel="0.8" decel="4.0" sigma="0.5" length="12" maxSpeed="2.46" guiShape="bus" probability="0.09999999999999998" /></vTypeDistribution><flow id="duration_20250327_1730_flow34" type="mixed_duration_20250327_1730_flow34" begin="0" end="133.0" number="38" from="1235147073.116" to="1369578054" departPos="random" arrivalPos="random" /><vTypeDistribution id="mixed_duration_20250327_1730_flow35"><vType id="car_duration_20250327_1730_flow35" accel="1.0" decel="4.5" sigma="0.5" length="5" maxSpeed="2.99" guiShape="passenger" probability="0.9" /><vType id="bus_duration_20250327_1730_flow35" accel="0.8" decel="4.0" sigma="0.5" length="12" maxSpeed="2.58" guiShape="bus" probability="0.09999999999999998" /></vTypeDistribution><flow id="duration_20250327_1730_flow35" type="mixed_duration_20250327_1730_flow35" begin="0" end="100.0" number="28" from="133126008#0" to="1369578054" departPos="random" arrivalPos="random" /><vTypeDistribution id="mixed_duration_20250327_1730_flow36"><vType id="car_duration_20250327_1730_flow36" accel="1.0" decel="4.5" sigma="0.5" length="5" maxSpeed="2.8" guiShape="passenger" probability="0.9" /><vType id="bus_duration_20250327_1730_flow36" accel="0.8" decel="4.0" sigma="0.5" length="12" maxSpeed="2.42" guiShape="bus" probability="0.09999999999999998" /></vTypeDistribution><flow id="duration_20250327_1730_flow36" type="mixed_duration_20250327_1730_flow36" begin="0" end="77.0" number="22" from="133126008#0" to="133126030#0" departPos="random" arrivalPos="random" /><vTypeDistribution id="mixed_duration_20250327_1730_flow37"><vType id="car_duration_20250327_1730_flow37" accel="1.0" decel="4.5" sigma="0.5" length="5" maxSpeed="3.22" guiShape="passenger" probability="0.9" /><vType id="bus_duration_20250327_1730_flow37" accel="0.8" decel="4.0" sigma="0.5" length="12" maxSpeed="2.78" guiShape="bus" probability="0.09999999999999998" /></vTypeDistribution><flow id="duration_20250327_1730_flow37" type="mixed_duration_20250327_1730_flow37" begin="0" end="97.0" number="27" from="485211947#0" to="1369578054" departPos="random" arrivalPos="random" /><vTypeDistribution id="mixed_duration_20250327_1730_flow38"><vType id="car_duration_20250327_1730_flow38" accel="1.0" decel="4.5" sigma="0.5" length="5" maxSpeed="4.02" guiShape="passenger" probability="0.9" /><vType id="bus_duration_20250327_1730_flow38" accel="0.8" decel="4.0" sigma="0.5" length="12" maxSpeed="3.47" guiShape="bus" probability="0.09999999999999998" /></vTypeDistribution><flow id="duration_20250327_1730_flow38" type="mixed_duration_20250327_1730_flow38" begin="0" end="73.0" number="20" from="485211947#0" to="137415945#0" departPos="random" arrivalPos="random" /><vTypeDistribution id="mixed_duration_20250327_1730_flow39"><vType id="car_duration_20250327_1730_flow39" accel="1.0" decel="4.5" sigma="0.5" length="5" maxSpeed="2.98" guiShape="passenger" probability="0.9" /><vType id="bus_duration_20250327_1730_flow39" accel="0.8" decel="4.0" sigma="0.5" length="12" maxSpeed="2.58" guiShape="bus" probability="0.09999999999999998" /></vTypeDistribution><flow id="duration_20250327_1730_flow39" type="mixed_duration_20250327_1730_flow39" begin="0" end="73.0" number="20" from="485211947#0" to="-430406005#1" departPos="random" arrivalPos="random" /><vTypeDistribution id="mixed_duration_20250327_1730_flow40"><vType id="car_duration_20250327_1730_flow40" accel="1.0" decel="4.5" sigma="0.5" length="5" maxSpeed="3.49" guiShape="passenger" probability="0.9" /><vType id="bus_duration_20250327_1730_flow40" accel="0.8" decel="4.0" sigma="0.5" length="12" maxSpeed="3.02" guiShape="bus" probability="0.09999999999999998" /></vTypeDistribution><flow id="duration_20250327_1730_flow40" type="mixed_duration_20250327_1730_flow40" begin="0" end="63.0" number="18" from="133126030#0" to="134193294#0" departPos="random" arrivalPos="random" /><vTypeDistribution id="mixed_duration_20250327_1730_flow41"><vType id="car_duration_20250327_1730_flow41" accel="1.0" decel="4.5" sigma="0.5" length="5" maxSpeed="4.21" guiShape="passenger" probability="0.9" /><vType id="bus_duration_20250327_1730_flow41" accel="0.8" decel="4.0" sigma="0.5" length="12" maxSpeed="3.64" guiShape="bus" probability="0.09999999999999998" /></vTypeDistribution><flow id="duration_20250327_1730_flow41" type="mixed_duration_20250327_1730_flow41" begin="0" end="59.0" number="16" from="133126030#0" to="1328664748#0" departPos="random" arrivalPos="random" /><vTypeDistribution id="mixed_duration_20250327_1730_flow42"><vType id="car_duration_20250327_1730_flow42" accel="1.0" decel="4.5" sigma="0.5" length="5" maxSpeed="3.38" guiShape="passenger" probability="0.9" /><vType id="bus_duration_20250327_1730_flow42" accel="0.8" decel="4.0" sigma="0.5" length="12" maxSpeed="2.92" guiShape="bus" probability="0.09999999999999998" /></vTypeDistribution><flow id="duration_20250327_1730_flow42" type="mixed_duration_20250327_1730_flow42" begin="0" end="83.0" number="23" from="1369578054" to="1341093415#0" departPos="random" arrivalPos="random" /><vTypeDistribution id="mixed_duration_20250327_1730_flow43"><vType id="car_duration_20250327_1730_flow43" accel="1.0" decel="4.5" sigma="0.5" length="5" maxSpeed="3.24" guiShape="passenger" probability="0.9" /><vType id="bus_duration_20250327_1730_flow43" accel="0.8" decel="4.0" sigma="0.5" length="12" maxSpeed="2.8" guiShape="bus" probability="0.09999999999999998" /></vTypeDistribution><flow id="duration_20250327_1730_flow43" type="mixed_duration_20250327_1730_flow43" begin="0" end="70.0" number="20" from="1369578054" to="138002006#0" departPos="random" arrivalPos="random" /><vTypeDistribution id="mixed_duration_20250327_1730_flow44"><vType id="car_duration_20250327_1730_flow44" accel="1.0" decel="4.5" sigma="0.5" length="5" maxSpeed="2.56" guiShape="passenger" probability="0.9" /><vType id="bus_duration_20250327_1730_flow44" accel="0.8" decel="4.0" sigma="0.5" length="12" maxSpeed="2.21" guiShape="bus" probability="0.09999999999999998" /></vTypeDistribution><flow id="duration_20250327_1730_flow44" type="mixed_duration_20250327_1730_flow44" begin="0" end="98.0" number="28" from="1328664744#0" to="133126030#0" departPos="random" arrivalPos="random" /><vTypeDistribution id="mixed_duration_20250327_1730_flow45"><vType id="car_duration_20250327_1730_flow45" accel="1.0" decel="4.5" sigma="0.5" length="5" maxSpeed="2.59" guiShape="passenger" probability="0.9" /><vType id="bus_duration_20250327_1730_flow45" accel="0.8" decel="4.0" sigma="0.5" length="12" maxSpeed="2.24" guiShape="bus" probability="0.09999999999999998" /></vTypeDistribution><flow id="duration_20250327_1730_flow45" type="mixed_duration_20250327_1730_flow45" begin="0" end="92.0" number="26" from="1328664744#0" to="134193294#0" departPos="random" arrivalPos="random" /><vTypeDistribution id="mixed_duration_20250327_1730_flow46"><vType id="car_duration_20250327_1730_flow46" accel="1.0" decel="4.5" sigma="0.5" length="5" maxSpeed="3.41" guiShape="passenger" probability="0.9" /><vType id="bus_duration_20250327_1730_flow46" accel="0.8" decel="4.0" sigma="0.5" length="12" maxSpeed="2.95" guiShape="bus" probability="0.09999999999999998" /></vTypeDistribution><flow id="duration_20250327_1730_flow46" type="mixed_duration_20250327_1730_flow46" begin="0" end="88.0" number="25" from="791826085" to="134193294#0" departPos="random" arrivalPos="random" /><vTypeDistribution id="mixed_duration_20250327_1730_flow47"><vType id="car_duration_20250327_1730_flow47" accel="1.0" decel="4.5" sigma="0.5" length="5" maxSpeed="3.18" guiShape="passenger" probability="0.9" /><vType id="bus_duration_20250327_1730_flow47" accel="0.8" decel="4.0" sigma="0.5" length="12" maxSpeed="2.74" guiShape="bus" probability="0.09999999999999998" /></vTypeDistribution><flow id="duration_20250327_1730_flow47" type="mixed_duration_20250327_1730_flow47" begin="0" end="98.0" number="28" from="791826085" to="485211947#0" departPos="random" arrivalPos="random" /><vTypeDistribution id="mixed_duration_20250327_1730_flow48"><vType id="car_duration_20250327_1730_flow48" accel="1.0" decel="4.5" sigma="0.5" length="5" maxSpeed="3.45" guiShape="passenger" probability="0.9" /><vType id="bus_duration_20250327_1730_flow48" accel="0.8" decel="4.0" sigma="0.5" length="12" maxSpeed="2.98" guiShape="bus" probability="0.09999999999999998" /></vTypeDistribution><flow id="duration_20250327_1730_flow48" type="mixed_duration_20250327_1730_flow48" begin="0" end="95.0" number="27" from="791826085" to="1328664748#0" departPos="random" arrivalPos="random" /><vTypeDistribution id="mixed_duration_20250327_1730_flow49"><vType id="car_duration_20250327_1730_flow49" accel="1.0" decel="4.5" sigma="0.5" length="5" maxSpeed="3.15" guiShape="passenger" probability="0.9" /><vType id="bus_duration_20250327_1730_flow49" accel="0.8" decel="4.0" sigma="0.5" length="12" maxSpeed="2.72" guiShape="bus" probability="0.09999999999999998" /></vTypeDistribution><flow id="duration_20250327_1730_flow49" type="mixed_duration_20250327_1730_flow49" begin="0" end="75.0" number="21" from="380351865#0" to="1318793173#0" departPos="random" arrivalPos="random" /><vTypeDistribution id="mixed_duration_20250327_1730_flow50"><vType id="car_duration_20250327_1730_flow50" accel="1.0" decel="4.5" sigma="0.5" length="5" maxSpeed="1.92" guiShape="passenger" probability="0.9" /><vType id="bus_duration_20250327_1730_flow50" accel="0.8" decel="4.0" sigma="0.5" length="12" maxSpeed="1.66" guiShape="bus" probability="0.09999999999999998" /></vTypeDistribution><flow id="duration_20250327_1730_flow50" type="mixed_duration_20250327_1730_flow50" begin="0" end="180.0" number="51" from="380351865#0" to="133126031#0" departPos="random" arrivalPos="random" /><vTypeDistribution id="mixed_duration_20250327_1730_flow51"><vType id="car_duration_20250327_1730_flow51" accel="1.0" decel="4.5" sigma="0.5" length="5" maxSpeed="2.88" guiShape="passenger" probability="0.9" /><vType id="bus_duration_20250327_1730_flow51" accel="0.8" decel="4.0" sigma="0.5" length="12" maxSpeed="2.49" guiShape="bus" probability="0.09999999999999998" /></vTypeDistribution><flow id="duration_20250327_1730_flow51" type="mixed_duration_20250327_1730_flow51" begin="0" end="98.0" number="28" from="380351865#0" to="1318893695#0" departPos="random" arrivalPos="random" /><vTypeDistribution id="mixed_duration_20250327_1730_flow52"><vType id="car_duration_20250327_1730_flow52" accel="1.0" decel="4.5" sigma="