<?xml version='1.0' encoding='UTF-8'?>
<routes>
  <vType id="car" accel="1.0" decel="4.5" length="5" maxSpeed="16.6" sigma="0.5"/>
  <route id="route_0" edges="138002006#0 1369578052#0"/>
  <flow id="route_0_flow" type="car" route="route_0" begin="0" end="30" number="150" departPos="random" arrivalPos="random" departSpeed="max" departLane="best"/>
  <route id="route_1" edges="137415945#0 137415945#0.16 379698350#0"/>
  <flow id="route_1_flow" type="car" route="route_1" begin="0" end="30" number="149" departPos="random" arrivalPos="random" departSpeed="max" departLane="best"/>
  <route id="route_2" edges="1252820505#0 137406408#0"/>
  <flow id="route_2_flow" type="car" route="route_2" begin="0" end="30" number="150" departPos="random" arrivalPos="random" departSpeed="max" departLane="best"/>
  <route id="route_3" edges="133126030#0 134193294#0"/>
  <flow id="route_3_flow" type="car" route="route_3" begin="0" end="30" number="150" departPos="random" arrivalPos="random" departSpeed="max" departLane="best"/>
  <route id="route_4" edges="186407684#0 1341093416#0"/>
  <flow id="route_4_flow" type="car" route="route_4" begin="0" end="30" number="151" departPos="random" arrivalPos="random" departSpeed="max" departLane="best"/>
  <route id="route_5" edges="1252820503#0 133126040#0"/>
  <flow id="route_5_flow" type="car" route="route_5" begin="0" end="30" number="150" departPos="random" arrivalPos="random" departSpeed="max" departLane="best"/>
  <route id="route_6" edges="1253209803#0 133342692#0"/>
  <flow id="route_6_flow" type="car" route="route_6" begin="0" end="30" number="150" departPos="random" arrivalPos="random" departSpeed="max" departLane="best"/>
  <route id="route_7" edges="177211987#1 699152676#0 56196502#0 56196502#1-AddedOnRampEdge 56196502#1 488801107#0 488801107#1 138000492#0"/>
  <flow id="route_7_flow" type="car" route="route_7" begin="0" end="30" number="150" departPos="random" arrivalPos="random" departSpeed="max" departLane="best"/>
</routes>
