<?xml version='1.0' encoding='UTF-8'?>
<routes>
  <flow id="flow_cluster3828547534_cluster_1507433914_2954854770_2954854771_2954854772_#9more_0" from="291974733#0" to="379698350#0" number="0" begin="0" end="60"/>
  <flow id="flow_cluster3828547534_cluster_1507433914_2954854770_2954854771_2954854772_#9more_1" from="291974733#0" to="1342054204" number="0" begin="0" end="60"/>
  <flow id="flow_cluster3828547534_cluster_1507433914_2954854770_2954854771_2954854772_#9more_2" from="1252820505#0" to="379698350#0" number="0" begin="0" end="60"/>
  <flow id="flow_cluster3828547534_cluster_1507433914_2954854770_2954854771_2954854772_#9more_3" from="133000078#0" to="137406408#0" number="200" begin="0" end="60"/>
  <flow id="flow_cluster3828547534_cluster_1507433914_2954854770_2954854771_2954854772_#9more_4" from="133000078#0" to="1235147073.116" number="0" begin="0" end="60"/>
  <flow id="flow_cluster3828547534_cluster_1507433914_2954854770_2954854771_2954854772_#9more_5" from="1252820505#0" to="1235147073.116" number="0" begin="0" end="60"/>
  <flow id="flow_cluster3828547534_cluster_1507433914_2954854770_2954854771_2954854772_#9more_6" from="1252820505#0" to="137406408#0" number="0" begin="0" end="60"/>
  <flow id="flow_cluster3828547534_cluster_1507433914_2954854770_2954854771_2954854772_#9more_7" from="133000078#0" to="1342054204" number="0" begin="0" end="60"/>
  <flow id="flow_cluster3828547534_cluster_1507433914_2954854770_2954854771_2954854772_#9more_8" from="137415945#0" to="1342054204" number="0" begin="0" end="60"/>
  <flow id="flow_cluster3828547534_cluster_1507433914_2954854770_2954854771_2954854772_#9more_9" from="137415945#0" to="379698350#0" number="200" begin="0" end="60"/>
  <flow id="flow_cluster3828547534_cluster_1507433914_2954854770_2954854771_2954854772_#9more_10" from="137415945#0" to="137406408#0" number="0" begin="0" end="60"/>
  <flow id="flow_cluster_11644940323_11644940324_3828703845_0" from="1318793173#0" to="189835257" number="0" begin="0" end="60"/>
  <flow id="flow_cluster_11644940323_11644940324_3828703845_1" from="1318793173#0" to="291974733#0" number="0" begin="0" end="60"/>
  <flow id="flow_cluster_11644940323_11644940324_3828703845_2" from="1318793173#0" to="1254771874#0" number="0" begin="0" end="60"/>
  <flow id="flow_cluster_11644940323_11644940324_3828703845_3" from="1252820503#0" to="291974733#0" number="0" begin="0" end="60"/>
  <flow id="flow_cluster_11644940323_11644940324_3828703845_4" from="1252820503#0" to="1254771874#0" number="200" begin="0" end="60"/>
  <flow id="flow_cluster_11644940323_11644940324_3828703845_5" from="1252820503#0" to="133126040#0" number="0" begin="0" end="60"/>
  <flow id="flow_cluster_11644940323_11644940324_3828703845_6" from="137406408#0" to="133126040#0" number="0" begin="0" end="60"/>
  <flow id="flow_cluster_11644940323_11644940324_3828703845_7" from="137406408#0" to="1254771874#0" number="200" begin="0" end="60"/>
  <flow id="flow_cluster_356722183_3828703848_0" from="1318793176#1" to="133126031#0" number="200" begin="0" end="60"/>
  <flow id="flow_cluster_356722183_3828703848_1" from="1318793176#1" to="1318793173#0" number="0" begin="0" end="60"/>
  <flow id="flow_cluster_356722183_3828703848_2" from="133126040#0" to="1318893695#0" number="0" begin="0" end="60"/>
  <flow id="flow_cluster_356722183_3828703848_3" from="133126040#0" to="133126031#0" number="200" begin="0" end="60"/>
  <flow id="flow_cluster_356722183_3828703848_4" from="380351865#0" to="1318793173#0" number="200" begin="0" end="60"/>
  <flow id="flow_cluster_356722183_3828703848_5" from="380351865#0" to="133126031#0" number="0" begin="0" end="60"/>
  <flow id="flow_cluster_356722183_3828703848_6" from="380351865#0" to="1318893695#0" number="0" begin="0" end="60"/>
  <flow id="flow_cluster_2271368471_4779869278_0" from="-422986370#2" to="-430406005#1" number="200" begin="0" end="60"/>
  <flow id="flow_cluster_2271368471_4779869278_1" from="-422986370#2" to="137415945#0" number="0" begin="0" end="60"/>
  <flow id="flow_cluster_2271368471_4779869278_2" from="1235147073.116" to="133126030#0" number="0" begin="0" end="60"/>
  <flow id="flow_cluster_2271368471_4779869278_3" from="1235147073.116" to="-430406005#1" number="200" begin="0" end="60"/>
  <flow id="flow_cluster_2271368471_4779869278_4" from="1235147073.116" to="1369578054" number="0" begin="0" end="60"/>
  <flow id="flow_cluster_2271368471_4779869278_5" from="133126008#0" to="1369578054" number="200" begin="0" end="60"/>
  <flow id="flow_cluster_2271368471_4779869278_6" from="133126008#0" to="133126030#0" number="0" begin="0" end="60"/>
  <flow id="flow_cluster_2271368471_4779869278_7" from="485211947#0" to="1369578054" number="200" begin="0" end="60"/>
  <flow id="flow_cluster_2271368471_4779869278_8" from="485211947#0" to="137415945#0" number="0" begin="0" end="60"/>
  <flow id="flow_cluster_2271368471_4779869278_9" from="485211947#0" to="-430406005#1" number="0" begin="0" end="60"/>
  <flow id="flow_11644940310_0" from="1254771874#0" to="1341093415#0" number="200" begin="0" end="60"/>
  <flow id="flow_11644940310_1" from="1254771874#0" to="-422986370#2" number="0" begin="0" end="60"/>
  <flow id="flow_11644940310_2" from="1254771874#0" to="138002006#0" number="200" begin="0" end="60"/>
  <flow id="flow_11644940310_3" from="1369578054" to="1341093415#0" number="0" begin="0" end="60"/>
  <flow id="flow_11644940310_4" from="1369578054" to="138002006#0" number="200" begin="0" end="60"/>
  <flow id="flow_11644940310_5" from="-138002006#3" to="-422986370#2" number="200" begin="0" end="60"/>
  <flow id="flow_11644940310_6" from="-138002006#3" to="1341093415#0" number="0" begin="0" end="60"/>
  <flow id="flow_632031937_0" from="138002006#0" to="380351865#0" number="0" begin="0" end="60"/>
  <flow id="flow_632031937_1" from="138002006#0" to="1369578052#0" number="0" begin="0" end="60"/>
  <flow id="flow_632031937_2" from="186407685" to="380351865#0" number="0" begin="0" end="60"/>
  <flow id="flow_632031937_3" from="186407685" to="-138002006#3" number="200" begin="0" end="60"/>
  <flow id="flow_632031937_4" from="186407685" to="1369578052#0" number="0" begin="0" end="60"/>
  <flow id="flow_632031937_5" from="-138002002#2" to="-138002006#3" number="200" begin="0" end="60"/>
  <flow id="flow_632031937_6" from="-138002002#2" to="380351865#0" number="200" begin="0" end="60"/>
  <flow id="flow_cluster_11648745684_256036885_3839031483_0" from="133131666#1" to="133342692#0" number="200" begin="0" end="60"/>
  <flow id="flow_cluster_11648745684_256036885_3839031483_1" from="133131666#1" to="-138002002#2" number="200" begin="0" end="60"/>
  <flow id="flow_cluster_11648745684_256036885_3839031483_2" from="133131666#1" to="138002016#0" number="0" begin="0" end="60"/>
  <flow id="flow_cluster_11648745684_256036885_3839031483_3" from="1253209803#0" to="-138002002#2" number="0" begin="0" end="60"/>
  <flow id="flow_cluster_11648745684_256036885_3839031483_4" from="1253209803#0" to="380585337#0" number="0" begin="0" end="60"/>
  <flow id="flow_cluster_11648745684_256036885_3839031483_5" from="1253209803#0" to="133342692#0" number="0" begin="0" end="60"/>
  <flow id="flow_cluster_11648745684_256036885_3839031483_6" from="1369578052#0" to="138002016#0" number="200" begin="0" end="60"/>
  <flow id="flow_cluster_11648745684_256036885_3839031483_7" from="1369578052#0" to="133342692#0" number="0" begin="0" end="60"/>
  <flow id="flow_cluster_11648745684_256036885_3839031483_8" from="380593307#0" to="380585337#0" number="200" begin="0" end="60"/>
  <flow id="flow_cluster_11648745684_256036885_3839031483_9" from="380593307#0" to="138002016#0" number="0" begin="0" end="60"/>
  <flow id="flow_cluster_11648745684_256036885_3839031483_10" from="380593307#0" to="-138002002#2" number="199" begin="0" end="60"/>
  <flow id="flow_cluster_3839031475_3839031476_4110471700_4234582615_0" from="133342692#0" to="133000063" number="200" begin="0" end="60"/>
  <flow id="flow_cluster_3839031475_3839031476_4110471700_4234582615_1" from="133342692#0" to="423956929" number="0" begin="0" end="60"/>
  <flow id="flow_cluster_3839031475_3839031476_4110471700_4234582615_2" from="133342692#0" to="136617981" number="200" begin="0" end="60"/>
  <flow id="flow_cluster_3839031475_3839031476_4110471700_4234582615_3" from="380344611#0" to="423956929" number="0" begin="0" end="60"/>
  <flow id="flow_cluster_3839031475_3839031476_4110471700_4234582615_4" from="380344611#0" to="380593307#0" number="0" begin="0" end="60"/>
  <flow id="flow_cluster_3839031475_3839031476_4110471700_4234582615_5" from="380344611#0" to="133000063" number="0" begin="0" end="60"/>
  <flow id="flow_cluster_3839031475_3839031476_4110471700_4234582615_6" from="1091883842" to="136617981" number="200" begin="0" end="60"/>
  <flow id="flow_cluster_3839031475_3839031476_4110471700_4234582615_7" from="1091883842" to="133000063" number="0" begin="0" end="60"/>
  <flow id="flow_cluster_3839031475_3839031476_4110471700_4234582615_8" from="380585338#0" to="380593307#0" number="200" begin="0" end="60"/>
  <flow id="flow_cluster_3839031475_3839031476_4110471700_4234582615_9" from="380585338#0" to="136617981" number="0" begin="0" end="60"/>
  <flow id="flow_cluster_4110471701_632031939_0" from="409155823" to="1091883842" number="200" begin="0" end="60"/>
  <flow id="flow_cluster_4110471701_632031939_1" from="423956929" to="186407684#0" number="200" begin="0" end="60"/>
  <flow id="flow_cluster_4110471701_632031939_2" from="423956929" to="186407685" number="0" begin="0" end="60"/>
  <flow id="flow_cluster_4110471701_632031939_3" from="430416184" to="186407685" number="0" begin="0" end="60"/>
  <flow id="flow_cluster_4110471701_632031939_4" from="430416184" to="1091883842" number="200" begin="0" end="60"/>
  <flow id="flow_cluster_4110471701_632031939_5" from="430416184" to="186407684#0" number="200" begin="0" end="60"/>
  <flow id="flow_cluster10852700972_12154751993_0" from="1341093415#0" to="1341093416#0" number="0" begin="0" end="60"/>
  <flow id="flow_cluster10852700972_12154751993_1" from="1341093415#0" to="791826085" number="200" begin="0" end="60"/>
  <flow id="flow_cluster10852700972_12154751993_2" from="1341093415#0" to="409155823" number="200" begin="0" end="60"/>
  <flow id="flow_cluster10852700972_12154751993_3" from="186407684#0" to="791826085" number="200" begin="0" end="60"/>
  <flow id="flow_cluster10852700972_12154751993_4" from="186407684#0" to="1341093416#0" number="200" begin="0" end="60"/>
  <flow id="flow_GS_cluster_4854142864_4854142865_0" from="133126030#0" to="134193294#0" number="0" begin="0" end="60"/>
  <flow id="flow_GS_cluster_4854142864_4854142865_1" from="133126030#0" to="1328664748#0" number="0" begin="0" end="60"/>
  <flow id="flow_GS_cluster_4854142864_4854142865_2" from="1328664744#0" to="133126030#0" number="0" begin="0" end="60"/>
  <flow id="flow_GS_cluster_4854142864_4854142865_3" from="1328664744#0" to="134193294#0" number="0" begin="0" end="60"/>
  <flow id="flow_GS_cluster_4854142864_4854142865_4" from="791826085" to="134193294#0" number="0" begin="0" end="60"/>
  <flow id="flow_GS_cluster_4854142864_4854142865_5" from="791826085" to="485211947#0" number="200" begin="0" end="60"/>
  <flow id="flow_GS_cluster_4854142864_4854142865_6" from="791826085" to="1328664748#0" number="200" begin="0" end="60"/>
  <flow id="flow_cluster_11648561419_11648561420_2271142975_4854142869_0" from="1328664748#0" to="135474719#0" number="200" begin="0" end="60"/>
  <flow id="flow_cluster_11648561419_11648561420_2271142975_4854142869_1" from="1328664748#0" to="177211987#1" number="200" begin="0" end="60"/>
  <flow id="flow_cluster_11648561419_11648561420_2271142975_4854142869_2" from="1328664748#0" to="1253188486#8" number="200" begin="0" end="60"/>
  <flow id="flow_cluster_11648561419_11648561420_2271142975_4854142869_3" from="1254519225#0.109" to="135474719#0" number="200" begin="0" end="60"/>
  <flow id="flow_cluster_11648561419_11648561420_2271142975_4854142869_4" from="1254519225#0.109" to="1328664744#0" number="0" begin="0" end="60"/>
  <flow id="flow_cluster_11648561419_11648561420_2271142975_4854142869_5" from="1254519225#0.109" to="177211987#1" number="200" begin="0" end="60"/>
  <flow id="flow_cluster_11648561419_11648561420_2271142975_4854142869_6" from="1253188486#4" to="1253188486#8" number="0" begin="0" end="60"/>
  <flow id="flow_cluster_11648561419_11648561420_2271142975_4854142869_7" from="1253188486#4" to="177211987#1" number="200" begin="0" end="60"/>
  <flow id="flow_cluster_11648561419_11648561420_2271142975_4854142869_8" from="1253188486#4" to="1328664744#0" number="0" begin="0" end="60"/>
  <flow id="flow_cluster_11648561419_11648561420_2271142975_4854142869_9" from="134194079#0" to="1328664744#0" number="200" begin="0" end="60"/>
  <flow id="flow_cluster_11648561419_11648561420_2271142975_4854142869_10" from="134194079#0" to="1253188486#8" number="0" begin="0" end="60"/>
  <flow id="flow_cluster_11657899598_353811979_6712514804_0" from="688883939#0" to="809719540#0" number="0" begin="0" end="60"/>
  <flow id="flow_cluster_11657899598_353811979_6712514804_1" from="688883939#0" to="1254157399#1" number="200" begin="0" end="60"/>
  <flow id="flow_cluster_11657899598_353811979_6712514804_2" from="688883939#0" to="186410975#0" number="0" begin="0" end="60"/>
  <flow id="flow_cluster_11657899598_353811979_6712514804_3" from="1310781056" to="714011134#0" number="200" begin="0" end="60"/>
  <flow id="flow_cluster_11657899598_353811979_6712514804_4" from="1310781056" to="186410975#0" number="0" begin="0" end="60"/>
  <flow id="flow_cluster_11657899598_353811979_6712514804_5" from="1310781056" to="1254157399#1" number="0" begin="0" end="60"/>
  <flow id="flow_cluster_11657899598_353811979_6712514804_6" from="31861355#0" to="186410975#0" number="200" begin="0" end="60"/>
  <flow id="flow_cluster_11657899598_353811979_6712514804_7" from="31861355#0" to="714011134#0" number="0" begin="0" end="60"/>
  <flow id="flow_cluster_11657899598_353811979_6712514804_8" from="31861355#0" to="809719540#0" number="0" begin="0" end="60"/>
  <flow id="flow_cluster7571105647_7571105653_cluster_1141265322_11869698130_256036890_4227138136_#4more_0" from="809719540#0" to="-809772643#1" number="0" begin="0" end="60"/>
  <flow id="flow_cluster7571105647_7571105653_cluster_1141265322_11869698130_256036890_4227138136_#4more_1" from="809719540#0" to="683079387#1" number="0" begin="0" end="60"/>
  <flow id="flow_cluster7571105647_7571105653_cluster_1141265322_11869698130_256036890_4227138136_#4more_2" from="1253222187#0" to="683079388#0" number="0" begin="0" end="60"/>
  <flow id="flow_cluster7571105647_7571105653_cluster_1141265322_11869698130_256036890_4227138136_#4more_3" from="1253222187#0" to="1310781056" number="0" begin="0" end="60"/>
  <flow id="flow_cluster7571105647_7571105653_cluster_1141265322_11869698130_256036890_4227138136_#4more_4" from="683079387#1" to="-809772643#1" number="0" begin="0" end="60"/>
  <flow id="flow_cluster7571105647_7571105653_cluster_1141265322_11869698130_256036890_4227138136_#4more_5" from="683079387#1" to="1310781056" number="200" begin="0" end="60"/>
  <flow id="flow_GS_cluster_1342409365_3839031467_0" from="133000063" to="683079387#1" number="200" begin="0" end="60"/>
  <flow id="flow_GS_cluster_1342409365_3839031467_1" from="133000063" to="186409193" number="200" begin="0" end="60"/>
  <flow id="flow_GS_cluster_1342409365_3839031467_2" from="133000063" to="380585336" number="0" begin="0" end="60"/>
  <flow id="flow_GS_cluster_1342409365_3839031467_3" from="1342963997" to="380585336" number="0" begin="0" end="60"/>
  <flow id="flow_GS_cluster_1342409365_3839031467_4" from="1342963997" to="683079387#1" number="200" begin="0" end="60"/>
  <flow id="flow_GS_cluster_1342409365_3839031467_5" from="134133272" to="380585338#0" number="0" begin="0" end="60"/>
  <flow id="flow_GS_cluster_1342409365_3839031467_6" from="134133272" to="683079387#1" number="200" begin="0" end="60"/>
  <flow id="flow_GS_cluster_1342409365_3839031467_7" from="683079388#0" to="380585338#0" number="0" begin="0" end="60"/>
  <flow id="flow_GS_cluster_1342409365_3839031467_8" from="683079388#0" to="380585336" number="0" begin="0" end="60"/>
  <flow id="flow_cluster_11648561428_407729599_0" from="186409193" to="1254519229#0" number="0" begin="0" end="60"/>
  <flow id="flow_cluster_11648561428_407729599_1" from="186409193" to="430416184" number="0" begin="0" end="60"/>
  <flow id="flow_cluster_11648561428_407729599_2" from="1254519229#0" to="430416184" number="0" begin="0" end="60"/>
  <flow id="flow_cluster_11648561428_407729599_3" from="1254519229#0" to="1342963997" number="0" begin="0" end="60"/>
  <flow id="flow_cluster_11648561428_407729599_4" from="186410975#0" to="430416184" number="0" begin="0" end="60"/>
  <flow id="flow_cluster3839130731_cluster_11644940326_11644940327_11648561426_0" from="1341093416#0" to="799091563#0" number="0" begin="0" end="60"/>
  <flow id="flow_cluster3839130731_cluster_11644940326_11644940327_11648561426_1" from="1341093416#0" to="1254519225#0.109" number="200" begin="0" end="60"/>
  <flow id="flow_cluster3839130731_cluster_11644940326_11644940327_11648561426_2" from="1341093416#0" to="1254519229#0" number="200" begin="0" end="60"/>
  <flow id="flow_cluster3839130731_cluster_11644940326_11644940327_11648561426_3" from="189240001" to="1254519225#0.109" number="0" begin="0" end="60"/>
  <flow id="flow_cluster3839130731_cluster_11644940326_11644940327_11648561426_4" from="189240001" to="799091563#0" number="200" begin="0" end="60"/>
  <flow id="flow_cluster3839130731_cluster_11644940326_11644940327_11648561426_5" from="1253188486#8" to="1254519229#0" number="0" begin="0" end="60"/>
  <flow id="flow_cluster3839130731_cluster_11644940326_11644940327_11648561426_6" from="1253188486#8" to="799091563#0" number="0" begin="0" end="60"/>
  <flow id="flow_cluster3839130731_cluster_11644940326_11644940327_11648561426_7" from="189240000#0-AddedOnRampEdge" to="1254519229#0" number="0" begin="0" end="60"/>
  <flow id="flow_cluster3839130731_cluster_11644940326_11644940327_11648561426_8" from="189240000#0-AddedOnRampEdge" to="1254519225#0.109" number="0" begin="0" end="60"/>
  <flow id="flow_J7_0" from="177211987#1" to="688883939#0" number="0" begin="0" end="60"/>
  <flow id="flow_J7_1" from="177211987#1" to="138000492#0" number="200" begin="0" end="60"/>
  <flow id="flow_J7_2" from="799091563#0" to="138000492#0" number="200" begin="0" end="60"/>
  <flow id="flow_J7_3" from="799091563#0" to="134194079#0" number="200" begin="0" end="60"/>
  <flow id="flow_J7_4" from="799091563#0" to="688883939#0" number="200" begin="0" end="60"/>
  <flow id="flow_J7_5" from="-138000461" to="138000492#0" number="0" begin="0" end="60"/>
  <flow id="flow_J7_6" from="-138000461" to="189240000#0-AddedOnRampEdge" number="0" begin="0" end="60"/>
  <flow id="flow_J7_7" from="714011134#0" to="134194079#0" number="200" begin="0" end="60"/>
  <flow id="flow_J7_8" from="714011134#0" to="189240000#0-AddedOnRampEdge" number="200" begin="0" end="60"/>
  <flow id="flow_J7_9" from="714011134#0" to="138000492#0" number="200" begin="0" end="60"/>
  <flow id="flow_J7_10" from="49734468" to="189240000#0-AddedOnRampEdge" number="0" begin="0" end="60"/>
  <flow id="flow_J7_11" from="49734468" to="138000461" number="0" begin="0" end="60"/>
</routes>
