<?xml version='1.0' encoding='UTF-8'?>
<routes>
  <vType id="car" accel="1.0" decel="4.5" length="5" maxSpeed="16.6" sigma="0.5"/>
  <route id="route_r0" edges="1318793176#1 1318793176#1.11 133126031#0"/>
  <flow id="route_r0" type="car" route="route_r0" begin="60" end="120" number="79" departPos="random" arrivalPos="random"/>
  <route id="route_r1" edges="1318793176#1 1318793176#1.11 1318793173#0"/>
  <flow id="route_r1" type="car" route="route_r1" begin="60" end="120" number="249" departPos="random" arrivalPos="random"/>
  <route id="route_r18" edges="133126040#0 1318893695#0"/>
  <flow id="route_r18" type="car" route="route_r18" begin="60" end="120" number="287" departPos="random" arrivalPos="random"/>
  <route id="route_r19" edges="133126040#0 133126031#0"/>
  <flow id="route_r19" type="car" route="route_r19" begin="60" end="120" number="10" departPos="random" arrivalPos="random"/>
  <route id="route_r47" edges="380351865#0 380351865#0.21 1318793173#0"/>
  <flow id="route_r47" type="car" route="route_r47" begin="60" end="120" number="15" departPos="random" arrivalPos="random"/>
  <route id="route_r48" edges="380351865#0 380351865#0.21 133126031#0"/>
  <flow id="route_r48" type="car" route="route_r48" begin="60" end="120" number="179" departPos="random" arrivalPos="random"/>
  <route id="route_r49" edges="380351865#0 380351865#0.21 1318893695#0"/>
  <flow id="route_r49" type="car" route="route_r49" begin="60" end="120" number="181" departPos="random" arrivalPos="random"/>
  <route id="route_r2" edges="1318793173#0 133126013#0 189835257"/>
  <flow id="route_r2" type="car" route="route_r2" begin="60" end="120" number="238" departPos="random" arrivalPos="random"/>
  <route id="route_r3" edges="1318793173#0 291974733#0"/>
  <flow id="route_r3" type="car" route="route_r3" begin="60" end="120" number="249" departPos="random" arrivalPos="random"/>
  <route id="route_r9" edges="1318793173#0 1254771875#0 1254771874#0"/>
  <flow id="route_r9" type="car" route="route_r9" begin="60" end="120" number="13" departPos="random" arrivalPos="random"/>
  <route id="route_r13" edges="1252820503#0 291974733#0"/>
  <flow id="route_r13" type="car" route="route_r13" begin="60" end="120" number="250" departPos="random" arrivalPos="random"/>
  <route id="route_r14" edges="1252820503#0 1254771875#0 1254771874#0"/>
  <flow id="route_r14" type="car" route="route_r14" begin="60" end="120" number="24" departPos="random" arrivalPos="random"/>
  <route id="route_r15" edges="1252820503#0 133126040#0"/>
  <flow id="route_r15" type="car" route="route_r15" begin="60" end="120" number="41" departPos="random" arrivalPos="random"/>
  <route id="route_r16" edges="137406408#0 133126040#0"/>
  <flow id="route_r16" type="car" route="route_r16" begin="60" end="120" number="55" departPos="random" arrivalPos="random"/>
  <route id="route_r17" edges="137406408#0 1254771875#0 1254771874#0"/>
  <flow id="route_r17" type="car" route="route_r17" begin="60" end="120" number="167" departPos="random" arrivalPos="random"/>
  <route id="route_r4" edges="291974733#0 379698350#0"/>
  <flow id="route_r4" type="car" route="route_r4" begin="60" end="120" number="206" departPos="random" arrivalPos="random"/>
  <route id="route_r5" edges="291974733#0 1342054204"/>
  <flow id="route_r5" type="car" route="route_r5" begin="60" end="120" number="21" departPos="random" arrivalPos="random"/>
  <route id="route_r6" edges="1252820505#0 379698350#0"/>
  <flow id="route_r6" type="car" route="route_r6" begin="60" end="120" number="42" departPos="random" arrivalPos="random"/>
  <route id="route_r7" edges="133000078#0 137406408#0"/>
  <flow id="route_r7" type="car" route="route_r7" begin="60" end="120" number="12" departPos="random" arrivalPos="random"/>
  <route id="route_r8" edges="133000078#0 1235147073 1235147073.116"/>
  <flow id="route_r8" type="car" route="route_r8" begin="60" end="120" number="28" departPos="random" arrivalPos="random"/>
  <route id="route_r10" edges="1252820505#0 1235147073 1235147073.116"/>
  <flow id="route_r10" type="car" route="route_r10" begin="60" end="120" number="195" departPos="random" arrivalPos="random"/>
  <route id="route_r11" edges="1252820505#0 137406408#0"/>
  <flow id="route_r11" type="car" route="route_r11" begin="60" end="120" number="116" departPos="random" arrivalPos="random"/>
  <route id="route_r12" edges="133000078#0 1342054204"/>
  <flow id="route_r12" type="car" route="route_r12" begin="60" end="120" number="206" departPos="random" arrivalPos="random"/>
  <route id="route_r22" edges="137415945#0 137415945#0.16 1342054204"/>
  <flow id="route_r22" type="car" route="route_r22" begin="60" end="120" number="284" departPos="random" arrivalPos="random"/>
  <route id="route_r23" edges="137415945#0 137415945#0.16 379698350#0"/>
  <flow id="route_r23" type="car" route="route_r23" begin="60" end="120" number="242" departPos="random" arrivalPos="random"/>
  <route id="route_r24" edges="137415945#0 137415945#0.16 137406408#0"/>
  <flow id="route_r24" type="car" route="route_r24" begin="60" end="120" number="175" departPos="random" arrivalPos="random"/>
  <route id="route_r25" edges="1254771874#0 1341093415#0"/>
  <flow id="route_r25" type="car" route="route_r25" begin="60" end="120" number="271" departPos="random" arrivalPos="random"/>
  <route id="route_r26" edges="1254771874#0 -422986370#2"/>
  <flow id="route_r26" type="car" route="route_r26" begin="60" end="120" number="162" departPos="random" arrivalPos="random"/>
  <route id="route_r27" edges="1254771874#0 138002006#0"/>
  <flow id="route_r27" type="car" route="route_r27" begin="60" end="120" number="62" departPos="random" arrivalPos="random"/>
  <route id="route_r40" edges="1369578054 1341093415#0"/>
  <flow id="route_r40" type="car" route="route_r40" begin="60" end="120" number="212" departPos="random" arrivalPos="random"/>
  <route id="route_r41" edges="1369578054 138002006#0"/>
  <flow id="route_r41" type="car" route="route_r41" begin="60" end="120" number="162" departPos="random" arrivalPos="random"/>
  <route id="route_r50" edges="-138002006#3 -422986370#2"/>
  <flow id="route_r50" type="car" route="route_r50" begin="60" end="120" number="111" departPos="random" arrivalPos="random"/>
  <route id="route_r51" edges="-138002006#3 1341093415#0"/>
  <flow id="route_r51" type="car" route="route_r51" begin="60" end="120" number="221" departPos="random" arrivalPos="random"/>
  <route id="route_r28" edges="-422986370#2 -430406005#1"/>
  <flow id="route_r28" type="car" route="route_r28" begin="60" end="120" number="120" departPos="random" arrivalPos="random"/>
  <route id="route_r29" edges="-422986370#2 485211287#0 137415945#0"/>
  <flow id="route_r29" type="car" route="route_r29" begin="60" end="120" number="287" departPos="random" arrivalPos="random"/>
  <route id="route_r30" edges="1235147073.116 133126026#0 133126030#0"/>
  <flow id="route_r30" type="car" route="route_r30" begin="60" end="120" number="126" departPos="random" arrivalPos="random"/>
  <route id="route_r31" edges="1235147073.116 133126026#0 -430406005#1"/>
  <flow id="route_r31" type="car" route="route_r31" begin="60" end="120" number="149" departPos="random" arrivalPos="random"/>
  <route id="route_r32" edges="1235147073.116 133126026#0 1369578054"/>
  <flow id="route_r32" type="car" route="route_r32" begin="60" end="120" number="119" departPos="random" arrivalPos="random"/>
  <route id="route_r33" edges="133126008#0 1369578054"/>
  <flow id="route_r33" type="car" route="route_r33" begin="60" end="120" number="37" departPos="random" arrivalPos="random"/>
  <route id="route_r34" edges="133126008#0 133126030#0"/>
  <flow id="route_r34" type="car" route="route_r34" begin="60" end="120" number="294" departPos="random" arrivalPos="random"/>
  <route id="route_r35" edges="485211947#0 1369578054"/>
  <flow id="route_r35" type="car" route="route_r35" begin="60" end="120" number="182" departPos="random" arrivalPos="random"/>
  <route id="route_r36" edges="485211947#0 485211287#0 137415945#0"/>
  <flow id="route_r36" type="car" route="route_r36" begin="60" end="120" number="236" departPos="random" arrivalPos="random"/>
  <route id="route_r37" edges="485211947#0 -430406005#1"/>
  <flow id="route_r37" type="car" route="route_r37" begin="60" end="120" number="81" departPos="random" arrivalPos="random"/>
  <route id="route_r38" edges="133126030#0 134193294#0"/>
  <flow id="route_r38" type="car" route="route_r38" begin="60" end="120" number="237" departPos="random" arrivalPos="random"/>
  <route id="route_r39" edges="133126030#0 1328664748#0"/>
  <flow id="route_r39" type="car" route="route_r39" begin="60" end="120" number="94" departPos="random" arrivalPos="random"/>
  <route id="route_r42" edges="1328664744#0 485211947#0 -430406005#1 133126008#0 133126030#0"/>
  <flow id="route_r42" type="car" route="route_r42" begin="60" end="120" number="85" departPos="random" arrivalPos="random"/>
  <route id="route_r43" edges="1328664744#0 134193294#0"/>
  <flow id="route_r43" type="car" route="route_r43" begin="60" end="120" number="119" departPos="random" arrivalPos="random"/>
  <route id="route_r44" edges="791826085 134193294#0"/>
  <flow id="route_r44" type="car" route="route_r44" begin="60" end="120" number="68" departPos="random" arrivalPos="random"/>
  <route id="route_r45" edges="791826085 485211947#0"/>
  <flow id="route_r45" type="car" route="route_r45" begin="60" end="120" number="160" departPos="random" arrivalPos="random"/>
  <route id="route_r46" edges="791826085 1328664748#0"/>
  <flow id="route_r46" type="car" route="route_r46" begin="60" end="120" number="106" departPos="random" arrivalPos="random"/>
  <route id="route_r52" edges="138002006#0 1328467333 380351865#0"/>
  <flow id="route_r52" type="car" route="route_r52" begin="60" end="120" number="17" departPos="random" arrivalPos="random"/>
  <route id="route_r53" edges="138002006#0 1369578052#0"/>
  <flow id="route_r53" type="car" route="route_r53" begin="60" end="120" number="178" departPos="random" arrivalPos="random"/>
  <route id="route_r57" edges="186407685 1328467333 380351865#0"/>
  <flow id="route_r57" type="car" route="route_r57" begin="60" end="120" number="83" departPos="random" arrivalPos="random"/>
  <route id="route_r58" edges="186407685 -138002006#3"/>
  <flow id="route_r58" type="car" route="route_r58" begin="60" end="120" number="17" departPos="random" arrivalPos="random"/>
  <route id="route_r59" edges="186407685 1369578052#0"/>
  <flow id="route_r59" type="car" route="route_r59" begin="60" end="120" number="140" departPos="random" arrivalPos="random"/>
  <route id="route_r66" edges="-138002002#2 -138002006#3"/>
  <flow id="route_r66" type="car" route="route_r66" begin="60" end="120" number="229" departPos="random" arrivalPos="random"/>
  <route id="route_r67" edges="-138002002#2 1328467333 380351865#0"/>
  <flow id="route_r67" type="car" route="route_r67" begin="60" end="120" number="41" departPos="random" arrivalPos="random"/>
  <route id="route_r54" edges="1341093415#0 1341093416#0"/>
  <flow id="route_r54" type="car" route="route_r54" begin="60" end="120" number="133" departPos="random" arrivalPos="random"/>
  <route id="route_r55" edges="1341093415#0 791826085"/>
  <flow id="route_r55" type="car" route="route_r55" begin="60" end="120" number="31" departPos="random" arrivalPos="random"/>
  <route id="route_r56" edges="1341093415#0 409155823"/>
  <flow id="route_r56" type="car" route="route_r56" begin="60" end="120" number="67" departPos="random" arrivalPos="random"/>
  <route id="route_r60" edges="186407684#0 791826085"/>
  <flow id="route_r60" type="car" route="route_r60" begin="60" end="120" number="37" departPos="random" arrivalPos="random"/>
  <route id="route_r61" edges="186407684#0 1341093416#0"/>
  <flow id="route_r61" type="car" route="route_r61" begin="60" end="120" number="40" departPos="random" arrivalPos="random"/>
  <route id="route_r62" edges="409155823 1091883842"/>
  <flow id="route_r62" type="car" route="route_r62" begin="60" end="120" number="132" departPos="random" arrivalPos="random"/>
  <route id="route_r82" edges="423956929 186407684#0"/>
  <flow id="route_r82" type="car" route="route_r82" begin="60" end="120" number="32" departPos="random" arrivalPos="random"/>
  <route id="route_r83" edges="423956929 186407685"/>
  <flow id="route_r83" type="car" route="route_r83" begin="60" end="120" number="130" departPos="random" arrivalPos="random"/>
  <route id="route_r86" edges="430416184 186407685"/>
  <flow id="route_r86" type="car" route="route_r86" begin="60" end="120" number="243" departPos="random" arrivalPos="random"/>
  <route id="route_r87" edges="430416184 1091883842"/>
  <flow id="route_r87" type="car" route="route_r87" begin="60" end="120" number="119" departPos="random" arrivalPos="random"/>
  <route id="route_r88" edges="430416184 186407684#0"/>
  <flow id="route_r88" type="car" route="route_r88" begin="60" end="120" number="7" departPos="random" arrivalPos="random"/>
  <route id="route_r63" edges="133131666#1 133131710#0 133342692#0"/>
  <flow id="route_r63" type="car" route="route_r63" begin="60" end="120" number="146" departPos="random" arrivalPos="random"/>
  <route id="route_r64" edges="133131666#1 133131710#0 -138002002#2"/>
  <flow id="route_r64" type="car" route="route_r64" begin="60" end="120" number="38" departPos="random" arrivalPos="random"/>
  <route id="route_r65" edges="133131666#1 133131710#0 138002016#0"/>
  <flow id="route_r65" type="car" route="route_r65" begin="60" end="120" number="56" departPos="random" arrivalPos="random"/>
  <route id="route_r68" edges="1253209803#0 -138002002#2"/>
  <flow id="route_r68" type="car" route="route_r68" begin="60" end="120" number="232" departPos="random" arrivalPos="random"/>
  <route id="route_r69" edges="1253209803#0 689013160#1 380585337#0"/>
  <flow id="route_r69" type="car" route="route_r69" begin="60" end="120" number="101" departPos="random" arrivalPos="random"/>
  <route id="route_r70" edges="1253209803#0 133342692#0"/>
  <flow id="route_r70" type="car" route="route_r70" begin="60" end="120" number="274" departPos="random" arrivalPos="random"/>
  <route id="route_r71" edges="1369578052#0 138002016#0"/>
  <flow id="route_r71" type="car" route="route_r71" begin="60" end="120" number="24" departPos="random" arrivalPos="random"/>
  <route id="route_r72" edges="1369578052#0 133342692#0"/>
  <flow id="route_r72" type="car" route="route_r72" begin="60" end="120" number="149" departPos="random" arrivalPos="random"/>
  <route id="route_r73" edges="380593307#0 689013160#1 380585337#0"/>
  <flow id="route_r73" type="car" route="route_r73" begin="60" end="120" number="243" departPos="random" arrivalPos="random"/>
  <route id="route_r74" edges="380593307#0 138002016#0"/>
  <flow id="route_r74" type="car" route="route_r74" begin="60" end="120" number="167" departPos="random" arrivalPos="random"/>
  <route id="route_r75" edges="380593307#0 -138002002#2"/>
  <flow id="route_r75" type="car" route="route_r75" begin="60" end="120" number="130" departPos="random" arrivalPos="random"/>
  <route id="route_r76" edges="133342692#0 133000063"/>
  <flow id="route_r76" type="car" route="route_r76" begin="60" end="120" number="46" departPos="random" arrivalPos="random"/>
  <route id="route_r77" edges="133342692#0 423956929"/>
  <flow id="route_r77" type="car" route="route_r77" begin="60" end="120" number="260" departPos="random" arrivalPos="random"/>
  <route id="route_r78" edges="133342692#0 136617981"/>
  <flow id="route_r78" type="car" route="route_r78" begin="60" end="120" number="76" departPos="random" arrivalPos="random"/>
  <route id="route_r79" edges="380344611#0 423956929"/>
  <flow id="route_r79" type="car" route="route_r79" begin="60" end="120" number="142" departPos="random" arrivalPos="random"/>
  <route id="route_r80" edges="380344611#0 380593307#0"/>
  <flow id="route_r80" type="car" route="route_r80" begin="60" end="120" number="265" departPos="random" arrivalPos="random"/>
  <route id="route_r81" edges="380344611#0 133000063"/>
  <flow id="route_r81" type="car" route="route_r81" begin="60" end="120" number="7" departPos="random" arrivalPos="random"/>
  <route id="route_r84" edges="1091883842 136617981"/>
  <flow id="route_r84" type="car" route="route_r84" begin="60" end="120" number="69" departPos="random" arrivalPos="random"/>
  <route id="route_r85" edges="1091883842 133000063"/>
  <flow id="route_r85" type="car" route="route_r85" begin="60" end="120" number="89" departPos="random" arrivalPos="random"/>
  <route id="route_r89" edges="380585338#0 380593307#0"/>
  <flow id="route_r89" type="car" route="route_r89" begin="60" end="120" number="280" departPos="random" arrivalPos="random"/>
  <route id="route_r90" edges="380585338#0 136617981"/>
  <flow id="route_r90" type="car" route="route_r90" begin="60" end="120" number="135" departPos="random" arrivalPos="random"/>
  <route id="route_r91" edges="133000063 133000074#0 536904421 380585331#0 380585331#1 380585331#1-AddedOffRampEdge 413998000#0 413998000#1 380585329 683079387#0 683079387#1"/>
  <flow id="route_r91" type="car" route="route_r91" begin="60" end="120" number="6" departPos="random" arrivalPos="random"/>
  <route id="route_r92" edges="133000063 133000074#0 424419114 466039992 186409193"/>
  <flow id="route_r92" type="car" route="route_r92" begin="60" end="120" number="143" departPos="random" arrivalPos="random"/>
  <route id="route_r93" edges="133000063 133000074#0 536904421 380585331#0 380585331#1 380585331#1-AddedOffRampEdge 119476970 138000455 439280452 439288139 380585336"/>
  <flow id="route_r93" type="car" route="route_r93" begin="60" end="120" number="3" departPos="random" arrivalPos="random"/>
  <route id="route_r102" edges="1342963997 424419115 380585331#0 380585331#1 380585331#1-AddedOffRampEdge 119476970 138000455 439280452 439288139 380585336"/>
  <flow id="route_r102" type="car" route="route_r102" begin="60" end="120" number="283" departPos="random" arrivalPos="random"/>
  <route id="route_r103" edges="1342963997 424419115 380585331#0 380585331#1 380585331#1-AddedOffRampEdge 413998000#0 413998000#1 380585329 683079387#0 683079387#1"/>
  <flow id="route_r103" type="car" route="route_r103" begin="60" end="120" number="246" departPos="random" arrivalPos="random"/>
  <route id="route_r128" edges="134133272 380585334 380585332 380585338#0"/>
  <flow id="route_r128" type="car" route="route_r128" begin="60" end="120" number="145" departPos="random" arrivalPos="random"/>
  <route id="route_r129" edges="134133272 380585334 380585332 133000074#0 536904421 380585331#0 380585331#1 380585331#1-AddedOffRampEdge 413998000#0 413998000#1 380585329 683079387#0 683079387#1"/>
  <flow id="route_r129" type="car" route="route_r129" begin="60" end="120" number="233" departPos="random" arrivalPos="random"/>
  <route id="route_r144" edges="683079388#0 683079388#1 683079389 119476960 413997998 380585339#0 380585338#0"/>
  <flow id="route_r144" type="car" route="route_r144" begin="60" end="120" number="41" departPos="random" arrivalPos="random"/>
  <route id="route_r145" edges="683079388#0 683079388#1 683079389 119476960 119476978#0 119476978#1 380585336"/>
  <flow id="route_r145" type="car" route="route_r145" begin="60" end="120" number="293" departPos="random" arrivalPos="random"/>
  <route id="route_r94" edges="1341093416#0 799091563#0"/>
  <flow id="route_r94" type="car" route="route_r94" begin="60" end="120" number="29" departPos="random" arrivalPos="random"/>
  <route id="route_r95" edges="1341093416#0 1254519225#0 1254519225#0.109"/>
  <flow id="route_r95" type="car" route="route_r95" begin="60" end="120" number="98" departPos="random" arrivalPos="random"/>
  <route id="route_r96" edges="1341093416#0 1254519229#0"/>
  <flow id="route_r96" type="car" route="route_r96" begin="60" end="120" number="222" departPos="random" arrivalPos="random"/>
  <route id="route_r104" edges="189240001 1254519225#0 1254519225#0.109"/>
  <flow id="route_r104" type="car" route="route_r104" begin="60" end="120" number="75" departPos="random" arrivalPos="random"/>
  <route id="route_r105" edges="189240001 799091563#0"/>
  <flow id="route_r105" type="car" route="route_r105" begin="60" end="120" number="40" departPos="random" arrivalPos="random"/>
  <route id="route_r111" edges="1253188486#8 1254519229#0"/>
  <flow id="route_r111" type="car" route="route_r111" begin="60" end="120" number="24" departPos="random" arrivalPos="random"/>
  <route id="route_r112" edges="1253188486#8 799091563#0"/>
  <flow id="route_r112" type="car" route="route_r112" begin="60" end="120" number="267" departPos="random" arrivalPos="random"/>
  <route id="route_r123" edges="189240000#0-AddedOnRampEdge 189240000#0 1254519229#0"/>
  <flow id="route_r123" type="car" route="route_r123" begin="60" end="120" number="138" departPos="random" arrivalPos="random"/>
  <route id="route_r124" edges="189240000#0-AddedOnRampEdge 189240000#0 1254519225#0 1254519225#0.109"/>
  <flow id="route_r124" type="car" route="route_r124" begin="60" end="120" number="190" departPos="random" arrivalPos="random"/>
  <route id="route_r97" edges="1328664748#0 135474719#0"/>
  <flow id="route_r97" type="car" route="route_r97" begin="60" end="120" number="173" departPos="random" arrivalPos="random"/>
  <route id="route_r98" edges="1328664748#0 177211987#1"/>
  <flow id="route_r98" type="car" route="route_r98" begin="60" end="120" number="56" departPos="random" arrivalPos="random"/>
  <route id="route_r99" edges="1328664748#0 1253188486#8"/>
  <flow id="route_r99" type="car" route="route_r99" begin="60" end="120" number="50" departPos="random" arrivalPos="random"/>
  <route id="route_r108" edges="1254519225#0.109 799116519 135474719#0"/>
  <flow id="route_r108" type="car" route="route_r108" begin="60" end="120" number="197" departPos="random" arrivalPos="random"/>
  <route id="route_r109" edges="1254519225#0.109 799116519 1328664744#0"/>
  <flow id="route_r109" type="car" route="route_r109" begin="60" end="120" number="125" departPos="random" arrivalPos="random"/>
  <route id="route_r110" edges="1254519225#0.109 799116519 177211987#1"/>
  <flow id="route_r110" type="car" route="route_r110" begin="60" end="120" number="43" departPos="random" arrivalPos="random"/>
  <route id="route_r113" edges="1253188486#4 1253188486#8"/>
  <flow id="route_r113" type="car" route="route_r113" begin="60" end="120" number="16" departPos="random" arrivalPos="random"/>
  <route id="route_r114" edges="1253188486#4 177211987#1"/>
  <flow id="route_r114" type="car" route="route_r114" begin="60" end="120" number="48" departPos="random" arrivalPos="random"/>
  <route id="route_r115" edges="1253188486#4 1328664744#0"/>
  <flow id="route_r115" type="car" route="route_r115" begin="60" end="120" number="269" departPos="random" arrivalPos="random"/>
  <route id="route_r118" edges="134194079#0 1328664744#0"/>
  <flow id="route_r118" type="car" route="route_r118" begin="60" end="120" number="138" departPos="random" arrivalPos="random"/>
  <route id="route_r119" edges="134194079#0 1253188486#8"/>
  <flow id="route_r119" type="car" route="route_r119" begin="60" end="120" number="182" departPos="random" arrivalPos="random"/>
  <route id="route_r100" edges="186409193 186409193.57 189240001 1254519229#0"/>
  <flow id="route_r100" type="car" route="route_r100" begin="60" end="120" number="82" departPos="random" arrivalPos="random"/>
  <route id="route_r101" edges="186409193 186409193.57 430416184"/>
  <flow id="route_r101" type="car" route="route_r101" begin="60" end="120" number="157" departPos="random" arrivalPos="random"/>
  <route id="route_r106" edges="1254519229#0 430416184"/>
  <flow id="route_r106" type="car" route="route_r106" begin="60" end="120" number="61" departPos="random" arrivalPos="random"/>
  <route id="route_r107" edges="1254519229#0 1342963997"/>
  <flow id="route_r107" type="car" route="route_r107" begin="60" end="120" number="80" departPos="random" arrivalPos="random"/>
  <route id="route_r149" edges="186410975#0 186410975#1 -33130262 58642921#0 58642921#1 430416184"/>
  <flow id="route_r149" type="car" route="route_r149" begin="60" end="120" number="24" departPos="random" arrivalPos="random"/>
  <route id="route_r116" edges="177211987#1 699152676#0 688883939#0"/>
  <flow id="route_r116" type="car" route="route_r116" begin="60" end="120" number="172" departPos="random" arrivalPos="random"/>
  <route id="route_r117" edges="177211987#1 699152676#0 56196502#0 56196502#1-AddedOnRampEdge 56196502#1 488801107#0 488801107#1 138000492#0"/>
  <flow id="route_r117" type="car" route="route_r117" begin="60" end="120" number="73" departPos="random" arrivalPos="random"/>
  <route id="route_r120" edges="799091563#0 56196502#0 56196502#1-AddedOnRampEdge 56196502#1 488801107#0 488801107#1 138000492#0"/>
  <flow id="route_r120" type="car" route="route_r120" begin="60" end="120" number="105" departPos="random" arrivalPos="random"/>
  <route id="route_r121" edges="799091563#0 134194079#0"/>
  <flow id="route_r121" type="car" route="route_r121" begin="60" end="120" number="153" departPos="random" arrivalPos="random"/>
  <route id="route_r122" edges="799091563#0 688883939#0"/>
  <flow id="route_r122" type="car" route="route_r122" begin="60" end="120" number="196" departPos="random" arrivalPos="random"/>
  <route id="route_r126" edges="-138000461 -138000479 49734478 139783053 138000492#0"/>
  <flow id="route_r126" type="car" route="route_r126" begin="60" end="120" number="115" departPos="random" arrivalPos="random"/>
  <route id="route_r127" edges="-138000461 50899257 189240000#0-AddedOnRampEdge"/>
  <flow id="route_r127" type="car" route="route_r127" begin="60" end="120" number="197" departPos="random" arrivalPos="random"/>
  <route id="route_r131" edges="714011134#0 134194079#0"/>
  <flow id="route_r131" type="car" route="route_r131" begin="60" end="120" number="227" departPos="random" arrivalPos="random"/>
  <route id="route_r132" edges="714011134#0 799091561 189240000#0-AddedOnRampEdge"/>
  <flow id="route_r132" type="car" route="route_r132" begin="60" end="120" number="101" departPos="random" arrivalPos="random"/>
  <route id="route_r133" edges="714011134#0 56196502#0 56196502#1-AddedOnRampEdge 56196502#1 488801107#0 488801107#1 138000492#0"/>
  <flow id="route_r133" type="car" route="route_r133" begin="60" end="120" number="169" departPos="random" arrivalPos="random"/>
  <route id="route_r154" edges="49734468 441576488#0 441576488#0-AddedOffRampEdge 441576488#3 799091561 189240000#0-AddedOnRampEdge"/>
  <flow id="route_r154" type="car" route="route_r154" begin="60" end="120" number="107" departPos="random" arrivalPos="random"/>
  <route id="route_r155" edges="49734468 514305638 49734474 138000479 138000461"/>
  <flow id="route_r155" type="car" route="route_r155" begin="60" end="120" number="7" departPos="random" arrivalPos="random"/>
  <route id="route_r134" edges="688883939#0 809719540#0"/>
  <flow id="route_r134" type="car" route="route_r134" begin="60" end="120" number="163" departPos="random" arrivalPos="random"/>
  <route id="route_r135" edges="688883939#0 1254157399#1"/>
  <flow id="route_r135" type="car" route="route_r135" begin="60" end="120" number="43" departPos="random" arrivalPos="random"/>
  <route id="route_r136" edges="688883939#0 1310781105#0 186410975#0"/>
  <flow id="route_r136" type="car" route="route_r136" begin="60" end="120" number="222" departPos="random" arrivalPos="random"/>
  <route id="route_r137" edges="1310781056 1310781055#0 714011134#0"/>
  <flow id="route_r137" type="car" route="route_r137" begin="60" end="120" number="13" departPos="random" arrivalPos="random"/>
  <route id="route_r138" edges="1310781056 1310781055#0 1310781105#0 186410975#0"/>
  <flow id="route_r138" type="car" route="route_r138" begin="60" end="120" number="52" departPos="random" arrivalPos="random"/>
  <route id="route_r139" edges="1310781056 1310781055#0 1254157399#1"/>
  <flow id="route_r139" type="car" route="route_r139" begin="60" end="120" number="97" departPos="random" arrivalPos="random"/>
  <route id="route_r151" edges="31861355#0 1310781105#0 186410975#0"/>
  <flow id="route_r151" type="car" route="route_r151" begin="60" end="120" number="186" departPos="random" arrivalPos="random"/>
  <route id="route_r152" edges="31861355#0 714011134#0"/>
  <flow id="route_r152" type="car" route="route_r152" begin="60" end="120" number="101" departPos="random" arrivalPos="random"/>
  <route id="route_r153" edges="31861355#0 809719540#0"/>
  <flow id="route_r153" type="car" route="route_r153" begin="60" end="120" number="60" departPos="random" arrivalPos="random"/>
  <route id="route_r140" edges="809719540#0 -809772643#1"/>
  <flow id="route_r140" type="car" route="route_r140" begin="60" end="120" number="251" departPos="random" arrivalPos="random"/>
  <route id="route_r141" edges="809719540#0 809937918#0 683079388#0 683079387#1"/>
  <flow id="route_r141" type="car" route="route_r141" begin="60" end="120" number="142" departPos="random" arrivalPos="random"/>
  <route id="route_r142" edges="1253222187#0 809937918#0 683079388#0"/>
  <flow id="route_r142" type="car" route="route_r142" begin="60" end="120" number="25" departPos="random" arrivalPos="random"/>
  <route id="route_r143" edges="1253222187#0 1310781056-AddedOnRampEdge 1310781056"/>
  <flow id="route_r143" type="car" route="route_r143" begin="60" end="120" number="81" departPos="random" arrivalPos="random"/>
  <route id="route_r146" edges="683079387#1 683079387#1.14 -809772643#1"/>
  <flow id="route_r146" type="car" route="route_r146" begin="60" end="120" number="178" departPos="random" arrivalPos="random"/>
  <route id="route_r147" edges="683079387#1 683079387#1.14 1310781056-AddedOnRampEdge 1310781056"/>
  <flow id="route_r147" type="car" route="route_r147" begin="60" end="120" number="261" departPos="random" arrivalPos="random"/>
</routes>
